# generated by PACMAN-DDEC6 charge (https://github.com/sxm13/PACMAN/)
data_structure
_chemical_formula_sum              "Cu48 H96 C288 O192"
_cell_length_a       26.343
_cell_length_b       26.343
_cell_length_c       26.343
_cell_angle_alpha    90
_cell_angle_beta     90
_cell_angle_gamma    90

_symmetry_space_group_name_H-M    "P 1"
_symmetry_Int_Tables_number       1

loop_
  _symmetry_equiv_pos_as_xyz
  'x, y, z'

loop_
  _atom_site_type_symbol
  _atom_site_label
  _atom_site_symmetry_multiplicity
  _atom_site_fract_x
  _atom_site_fract_y
  _atom_site_fract_z
  _atom_site_occupancy
  _atom_site_charge
Cu  Cu1       1.0  0.28530  0.28530  0.00000  1.0000 0.8561425413
Cu  Cu2       1.0  0.71470  0.71470  0.00000  1.0000 0.8561425413
Cu  Cu3       1.0  0.71470  0.28530  0.00000  1.0000 0.8561425413
Cu  Cu4       1.0  0.28530  0.71470  0.00000  1.0000 0.8561425413
Cu  Cu5       1.0  0.00000  0.28530  0.28530  1.0000 0.8561425413
Cu  Cu6       1.0  0.00000  0.71470  0.71470  1.0000 0.8561425413
Cu  Cu7       1.0  0.00000  0.71470  0.28530  1.0000 0.8561425413
Cu  Cu8       1.0  0.00000  0.28530  0.71470  1.0000 0.8561425413
Cu  Cu9       1.0  0.28530  0.00000  0.28530  1.0000 0.8561425413
Cu  Cu10      1.0  0.71470  0.00000  0.71470  1.0000 0.8561425413
Cu  Cu11      1.0  0.28530  0.00000  0.71470  1.0000 0.8561425413
Cu  Cu12      1.0  0.71470  0.00000  0.28530  1.0000 0.8561425413
Cu  Cu13      1.0  0.28530  0.78530  0.50000  1.0000 0.8561425413
Cu  Cu14      1.0  0.71470  0.21470  0.50000  1.0000 0.8561425413
Cu  Cu15      1.0  0.71470  0.78530  0.50000  1.0000 0.8561425413
Cu  Cu16      1.0  0.28530  0.21470  0.50000  1.0000 0.8561425413
Cu  Cu17      1.0  0.00000  0.78530  0.78530  1.0000 0.8561425413
Cu  Cu18      1.0  0.00000  0.21470  0.21470  1.0000 0.8561425413
Cu  Cu19      1.0  0.00000  0.21470  0.78530  1.0000 0.8561425413
Cu  Cu20      1.0  0.00000  0.78530  0.21470  1.0000 0.8561425413
Cu  Cu21      1.0  0.28530  0.50000  0.78530  1.0000 0.8561425413
Cu  Cu22      1.0  0.71470  0.50000  0.21470  1.0000 0.8561425413
Cu  Cu23      1.0  0.28530  0.50000  0.21470  1.0000 0.8561425413
Cu  Cu24      1.0  0.71470  0.50000  0.78530  1.0000 0.8561425413
Cu  Cu25      1.0  0.78530  0.28530  0.50000  1.0000 0.8561425413
Cu  Cu26      1.0  0.21470  0.71470  0.50000  1.0000 0.8561425413
Cu  Cu27      1.0  0.21470  0.28530  0.50000  1.0000 0.8561425413
Cu  Cu28      1.0  0.78530  0.71470  0.50000  1.0000 0.8561425413
Cu  Cu29      1.0  0.50000  0.28530  0.78530  1.0000 0.8561425413
Cu  Cu30      1.0  0.50000  0.71470  0.21470  1.0000 0.8561425413
Cu  Cu31      1.0  0.50000  0.71470  0.78530  1.0000 0.8561425413
Cu  Cu32      1.0  0.50000  0.28530  0.21470  1.0000 0.8561425413
Cu  Cu33      1.0  0.78530  0.00000  0.78530  1.0000 0.8561425413
Cu  Cu34      1.0  0.21470  0.00000  0.21470  1.0000 0.8561425413
Cu  Cu35      1.0  0.78530  0.00000  0.21470  1.0000 0.8561425413
Cu  Cu36      1.0  0.21470  0.00000  0.78530  1.0000 0.8561425413
Cu  Cu37      1.0  0.78530  0.78530  0.00000  1.0000 0.8561425413
Cu  Cu38      1.0  0.21470  0.21470  0.00000  1.0000 0.8561425413
Cu  Cu39      1.0  0.21470  0.78530  0.00000  1.0000 0.8561425413
Cu  Cu40      1.0  0.78530  0.21470  0.00000  1.0000 0.8561425413
Cu  Cu41      1.0  0.50000  0.78530  0.28530  1.0000 0.8561425413
Cu  Cu42      1.0  0.50000  0.21470  0.71470  1.0000 0.8561425413
Cu  Cu43      1.0  0.50000  0.21470  0.28530  1.0000 0.8561425413
Cu  Cu44      1.0  0.50000  0.78530  0.71470  1.0000 0.8561425413
Cu  Cu45      1.0  0.78530  0.50000  0.28530  1.0000 0.8561425413
Cu  Cu46      1.0  0.21470  0.50000  0.71470  1.0000 0.8561425413
Cu  Cu47      1.0  0.78530  0.50000  0.71470  1.0000 0.8561425413
Cu  Cu48      1.0  0.21470  0.50000  0.28530  1.0000 0.8561425413
H   H1        1.0  0.38020  0.22800  0.88020  1.0000 0.1362873247
H   H2        1.0  0.61980  0.77200  0.88020  1.0000 0.1362873247
H   H3        1.0  0.61980  0.22800  0.11980  1.0000 0.1362873247
H   H4        1.0  0.38020  0.77200  0.11980  1.0000 0.1362873247
H   H5        1.0  0.88020  0.38020  0.22800  1.0000 0.1362873247
H   H6        1.0  0.88020  0.61980  0.77200  1.0000 0.1362873247
H   H7        1.0  0.11980  0.61980  0.22800  1.0000 0.1362873247
H   H8        1.0  0.11980  0.38020  0.77200  1.0000 0.1362873247
H   H9        1.0  0.22800  0.88020  0.38020  1.0000 0.1362873247
H   H10       1.0  0.77200  0.88020  0.61980  1.0000 0.1362873247
H   H11       1.0  0.22800  0.11980  0.61980  1.0000 0.1362873247
H   H12       1.0  0.77200  0.11980  0.38020  1.0000 0.1362873247
H   H13       1.0  0.22800  0.38020  0.11980  1.0000 0.1362873247
H   H14       1.0  0.77200  0.61980  0.11980  1.0000 0.1362873247
H   H15       1.0  0.22800  0.61980  0.88020  1.0000 0.1362873247
H   H16       1.0  0.77200  0.38020  0.88020  1.0000 0.1362873247
H   H17       1.0  0.38020  0.88020  0.77200  1.0000 0.1362873247
H   H18       1.0  0.61980  0.88020  0.22800  1.0000 0.1362873247
H   H19       1.0  0.61980  0.11980  0.77200  1.0000 0.1362873247
H   H20       1.0  0.38020  0.11980  0.22800  1.0000 0.1362873247
H   H21       1.0  0.88020  0.22800  0.61980  1.0000 0.1362873247
H   H22       1.0  0.88020  0.77200  0.38020  1.0000 0.1362873247
H   H23       1.0  0.11980  0.22800  0.38020  1.0000 0.1362873247
H   H24       1.0  0.11980  0.77200  0.61980  1.0000 0.1362873247
H   H25       1.0  0.61980  0.77200  0.11980  1.0000 0.1362873247
H   H26       1.0  0.38020  0.22800  0.11980  1.0000 0.1362873247
H   H27       1.0  0.38020  0.77200  0.88020  1.0000 0.1362873247
H   H28       1.0  0.61980  0.22800  0.88020  1.0000 0.1362873247
H   H29       1.0  0.11980  0.61980  0.77200  1.0000 0.1362873247
H   H30       1.0  0.11980  0.38020  0.22800  1.0000 0.1362873247
H   H31       1.0  0.88020  0.38020  0.77200  1.0000 0.1362873247
H   H32       1.0  0.88020  0.61980  0.22800  1.0000 0.1362873247
H   H33       1.0  0.77200  0.11980  0.61980  1.0000 0.1362873247
H   H34       1.0  0.22800  0.11980  0.38020  1.0000 0.1362873247
H   H35       1.0  0.77200  0.88020  0.38020  1.0000 0.1362873247
H   H36       1.0  0.22800  0.88020  0.61980  1.0000 0.1362873247
H   H37       1.0  0.77200  0.61980  0.88020  1.0000 0.1362873247
H   H38       1.0  0.22800  0.38020  0.88020  1.0000 0.1362873247
H   H39       1.0  0.77200  0.38020  0.11980  1.0000 0.1362873247
H   H40       1.0  0.22800  0.61980  0.11980  1.0000 0.1362873247
H   H41       1.0  0.61980  0.11980  0.22800  1.0000 0.1362873247
H   H42       1.0  0.38020  0.11980  0.77200  1.0000 0.1362873247
H   H43       1.0  0.38020  0.88020  0.22800  1.0000 0.1362873247
H   H44       1.0  0.61980  0.88020  0.77200  1.0000 0.1362873247
H   H45       1.0  0.11980  0.77200  0.38020  1.0000 0.1362873247
H   H46       1.0  0.11980  0.22800  0.61980  1.0000 0.1362873247
H   H47       1.0  0.88020  0.77200  0.61980  1.0000 0.1362873247
H   H48       1.0  0.88020  0.22800  0.38020  1.0000 0.1362873247
H   H49       1.0  0.38020  0.72800  0.38020  1.0000 0.1362873247
H   H50       1.0  0.61980  0.27200  0.38020  1.0000 0.1362873247
H   H51       1.0  0.61980  0.72800  0.61980  1.0000 0.1362873247
H   H52       1.0  0.38020  0.27200  0.61980  1.0000 0.1362873247
H   H53       1.0  0.88020  0.88020  0.72800  1.0000 0.1362873247
H   H54       1.0  0.88020  0.11980  0.27200  1.0000 0.1362873247
H   H55       1.0  0.11980  0.11980  0.72800  1.0000 0.1362873247
H   H56       1.0  0.11980  0.88020  0.27200  1.0000 0.1362873247
H   H57       1.0  0.38020  0.38020  0.27200  1.0000 0.1362873247
H   H58       1.0  0.61980  0.38020  0.72800  1.0000 0.1362873247
H   H59       1.0  0.61980  0.61980  0.27200  1.0000 0.1362873247
H   H60       1.0  0.38020  0.61980  0.72800  1.0000 0.1362873247
H   H61       1.0  0.88020  0.72800  0.11980  1.0000 0.1362873247
H   H62       1.0  0.88020  0.27200  0.88020  1.0000 0.1362873247
H   H63       1.0  0.11980  0.72800  0.88020  1.0000 0.1362873247
H   H64       1.0  0.11980  0.27200  0.11980  1.0000 0.1362873247
H   H65       1.0  0.61980  0.27200  0.61980  1.0000 0.1362873247
H   H66       1.0  0.38020  0.72800  0.61980  1.0000 0.1362873247
H   H67       1.0  0.38020  0.27200  0.38020  1.0000 0.1362873247
H   H68       1.0  0.61980  0.72800  0.38020  1.0000 0.1362873247
H   H69       1.0  0.11980  0.11980  0.27200  1.0000 0.1362873247
H   H70       1.0  0.11980  0.88020  0.72800  1.0000 0.1362873247
H   H71       1.0  0.88020  0.88020  0.27200  1.0000 0.1362873247
H   H72       1.0  0.88020  0.11980  0.72800  1.0000 0.1362873247
H   H73       1.0  0.61980  0.61980  0.72800  1.0000 0.1362873247
H   H74       1.0  0.38020  0.61980  0.27200  1.0000 0.1362873247
H   H75       1.0  0.38020  0.38020  0.72800  1.0000 0.1362873247
H   H76       1.0  0.61980  0.38020  0.27200  1.0000 0.1362873247
H   H77       1.0  0.11980  0.27200  0.88020  1.0000 0.1362873247
H   H78       1.0  0.11980  0.72800  0.11980  1.0000 0.1362873247
H   H79       1.0  0.88020  0.27200  0.11980  1.0000 0.1362873247
H   H80       1.0  0.88020  0.72800  0.88020  1.0000 0.1362873247
H   H81       1.0  0.72800  0.88020  0.88020  1.0000 0.1362873247
H   H82       1.0  0.27200  0.88020  0.11980  1.0000 0.1362873247
H   H83       1.0  0.72800  0.11980  0.11980  1.0000 0.1362873247
H   H84       1.0  0.27200  0.11980  0.88020  1.0000 0.1362873247
H   H85       1.0  0.72800  0.38020  0.61980  1.0000 0.1362873247
H   H86       1.0  0.27200  0.61980  0.61980  1.0000 0.1362873247
H   H87       1.0  0.72800  0.61980  0.38020  1.0000 0.1362873247
H   H88       1.0  0.27200  0.38020  0.38020  1.0000 0.1362873247
H   H89       1.0  0.27200  0.11980  0.11980  1.0000 0.1362873247
H   H90       1.0  0.72800  0.11980  0.88020  1.0000 0.1362873247
H   H91       1.0  0.27200  0.88020  0.88020  1.0000 0.1362873247
H   H92       1.0  0.72800  0.88020  0.11980  1.0000 0.1362873247
H   H93       1.0  0.27200  0.61980  0.38020  1.0000 0.1362873247
H   H94       1.0  0.72800  0.38020  0.38020  1.0000 0.1362873247
H   H95       1.0  0.27200  0.38020  0.61980  1.0000 0.1362873247
H   H96       1.0  0.72800  0.61980  0.61980  1.0000 0.1362873247
C   C1        1.0  0.29680  0.20320  0.93130  1.0000 0.5806974743
C   C2        1.0  0.70320  0.79680  0.93130  1.0000 0.5806974743
C   C3        1.0  0.70320  0.20320  0.06870  1.0000 0.5806974743
C   C4        1.0  0.29680  0.79680  0.06870  1.0000 0.5806974743
C   C5        1.0  0.93130  0.29680  0.20320  1.0000 0.5806974743
C   C6        1.0  0.93130  0.70320  0.79680  1.0000 0.5806974743
C   C7        1.0  0.06870  0.70320  0.20320  1.0000 0.5806974743
C   C8        1.0  0.06870  0.29680  0.79680  1.0000 0.5806974743
C   C9        1.0  0.20320  0.93130  0.29680  1.0000 0.5806974743
C   C10       1.0  0.79680  0.93130  0.70320  1.0000 0.5806974743
C   C11       1.0  0.20320  0.06870  0.70320  1.0000 0.5806974743
C   C12       1.0  0.79680  0.06870  0.29680  1.0000 0.5806974743
C   C13       1.0  0.20320  0.29680  0.06870  1.0000 0.5806974743
C   C14       1.0  0.79680  0.70320  0.06870  1.0000 0.5806974743
C   C15       1.0  0.20320  0.70320  0.93130  1.0000 0.5806974743
C   C16       1.0  0.79680  0.29680  0.93130  1.0000 0.5806974743
C   C17       1.0  0.29680  0.93130  0.79680  1.0000 0.5806974743
C   C18       1.0  0.70320  0.93130  0.20320  1.0000 0.5806974743
C   C19       1.0  0.70320  0.06870  0.79680  1.0000 0.5806974743
C   C20       1.0  0.29680  0.06870  0.20320  1.0000 0.5806974743
C   C21       1.0  0.93130  0.20320  0.70320  1.0000 0.5806974743
C   C22       1.0  0.93130  0.79680  0.29680  1.0000 0.5806974743
C   C23       1.0  0.06870  0.20320  0.29680  1.0000 0.5806974743
C   C24       1.0  0.06870  0.79680  0.70320  1.0000 0.5806974743
C   C25       1.0  0.70320  0.79680  0.06870  1.0000 0.5806974743
C   C26       1.0  0.29680  0.20320  0.06870  1.0000 0.5806974743
C   C27       1.0  0.29680  0.79680  0.93130  1.0000 0.5806974743
C   C28       1.0  0.70320  0.20320  0.93130  1.0000 0.5806974743
C   C29       1.0  0.06870  0.70320  0.79680  1.0000 0.5806974743
C   C30       1.0  0.06870  0.29680  0.20320  1.0000 0.5806974743
C   C31       1.0  0.93130  0.29680  0.79680  1.0000 0.5806974743
C   C32       1.0  0.93130  0.70320  0.20320  1.0000 0.5806974743
C   C33       1.0  0.79680  0.06870  0.70320  1.0000 0.5806974743
C   C34       1.0  0.20320  0.06870  0.29680  1.0000 0.5806974743
C   C35       1.0  0.79680  0.93130  0.29680  1.0000 0.5806974743
C   C36       1.0  0.20320  0.93130  0.70320  1.0000 0.5806974743
C   C37       1.0  0.79680  0.70320  0.93130  1.0000 0.5806974743
C   C38       1.0  0.20320  0.29680  0.93130  1.0000 0.5806974743
C   C39       1.0  0.79680  0.29680  0.06870  1.0000 0.5806974743
C   C40       1.0  0.20320  0.70320  0.06870  1.0000 0.5806974743
C   C41       1.0  0.70320  0.06870  0.20320  1.0000 0.5806974743
C   C42       1.0  0.29680  0.06870  0.79680  1.0000 0.5806974743
C   C43       1.0  0.29680  0.93130  0.20320  1.0000 0.5806974743
C   C44       1.0  0.70320  0.93130  0.79680  1.0000 0.5806974743
C   C45       1.0  0.06870  0.79680  0.29680  1.0000 0.5806974743
C   C46       1.0  0.06870  0.20320  0.70320  1.0000 0.5806974743
C   C47       1.0  0.93130  0.79680  0.70320  1.0000 0.5806974743
C   C48       1.0  0.93130  0.20320  0.29680  1.0000 0.5806974743
C   C49       1.0  0.29680  0.70320  0.43130  1.0000 0.5806974743
C   C50       1.0  0.70320  0.29680  0.43130  1.0000 0.5806974743
C   C51       1.0  0.70320  0.70320  0.56870  1.0000 0.5806974743
C   C52       1.0  0.29680  0.29680  0.56870  1.0000 0.5806974743
C   C53       1.0  0.20320  0.43130  0.79680  1.0000 0.5806974743
C   C54       1.0  0.79680  0.43130  0.20320  1.0000 0.5806974743
C   C55       1.0  0.20320  0.56870  0.20320  1.0000 0.5806974743
C   C56       1.0  0.79680  0.56870  0.79680  1.0000 0.5806974743
C   C57       1.0  0.20320  0.79680  0.56870  1.0000 0.5806974743
C   C58       1.0  0.79680  0.20320  0.56870  1.0000 0.5806974743
C   C59       1.0  0.20320  0.20320  0.43130  1.0000 0.5806974743
C   C60       1.0  0.79680  0.79680  0.43130  1.0000 0.5806974743
C   C61       1.0  0.29680  0.43130  0.29680  1.0000 0.5806974743
C   C62       1.0  0.70320  0.43130  0.70320  1.0000 0.5806974743
C   C63       1.0  0.70320  0.56870  0.29680  1.0000 0.5806974743
C   C64       1.0  0.29680  0.56870  0.70320  1.0000 0.5806974743
C   C65       1.0  0.70320  0.29680  0.56870  1.0000 0.5806974743
C   C66       1.0  0.29680  0.70320  0.56870  1.0000 0.5806974743
C   C67       1.0  0.29680  0.29680  0.43130  1.0000 0.5806974743
C   C68       1.0  0.70320  0.70320  0.43130  1.0000 0.5806974743
C   C69       1.0  0.79680  0.56870  0.20320  1.0000 0.5806974743
C   C70       1.0  0.20320  0.56870  0.79680  1.0000 0.5806974743
C   C71       1.0  0.79680  0.43130  0.79680  1.0000 0.5806974743
C   C72       1.0  0.20320  0.43130  0.20320  1.0000 0.5806974743
C   C73       1.0  0.79680  0.20320  0.43130  1.0000 0.5806974743
C   C74       1.0  0.20320  0.79680  0.43130  1.0000 0.5806974743
C   C75       1.0  0.79680  0.79680  0.56870  1.0000 0.5806974743
C   C76       1.0  0.20320  0.20320  0.56870  1.0000 0.5806974743
C   C77       1.0  0.70320  0.56870  0.70320  1.0000 0.5806974743
C   C78       1.0  0.29680  0.56870  0.29680  1.0000 0.5806974743
C   C79       1.0  0.29680  0.43130  0.70320  1.0000 0.5806974743
C   C80       1.0  0.70320  0.43130  0.29680  1.0000 0.5806974743
C   C81       1.0  0.43130  0.29680  0.70320  1.0000 0.5806974743
C   C82       1.0  0.43130  0.70320  0.29680  1.0000 0.5806974743
C   C83       1.0  0.56870  0.70320  0.70320  1.0000 0.5806974743
C   C84       1.0  0.56870  0.29680  0.29680  1.0000 0.5806974743
C   C85       1.0  0.43130  0.20320  0.20320  1.0000 0.5806974743
C   C86       1.0  0.43130  0.79680  0.79680  1.0000 0.5806974743
C   C87       1.0  0.56870  0.20320  0.79680  1.0000 0.5806974743
C   C88       1.0  0.56870  0.79680  0.20320  1.0000 0.5806974743
C   C89       1.0  0.56870  0.70320  0.29680  1.0000 0.5806974743
C   C90       1.0  0.56870  0.29680  0.70320  1.0000 0.5806974743
C   C91       1.0  0.43130  0.29680  0.29680  1.0000 0.5806974743
C   C92       1.0  0.43130  0.70320  0.70320  1.0000 0.5806974743
C   C93       1.0  0.56870  0.79680  0.79680  1.0000 0.5806974743
C   C94       1.0  0.56870  0.20320  0.20320  1.0000 0.5806974743
C   C95       1.0  0.43130  0.79680  0.20320  1.0000 0.5806974743
C   C96       1.0  0.43130  0.20320  0.79680  1.0000 0.5806974743
C   C97       1.0  0.32200  0.17800  0.88700  1.0000 -0.0325737984
C   C98       1.0  0.67800  0.82200  0.88700  1.0000 -0.0325737984
C   C99       1.0  0.67800  0.17800  0.11300  1.0000 -0.0325737984
C   C100      1.0  0.32200  0.82200  0.11300  1.0000 -0.0325737984
C   C101      1.0  0.88700  0.32200  0.17800  1.0000 -0.0325737984
C   C102      1.0  0.88700  0.67800  0.82200  1.0000 -0.0325737984
C   C103      1.0  0.11300  0.67800  0.17800  1.0000 -0.0325737984
C   C104      1.0  0.11300  0.32200  0.82200  1.0000 -0.0325737984
C   C105      1.0  0.17800  0.88700  0.32200  1.0000 -0.0325737984
C   C106      1.0  0.82200  0.88700  0.67800  1.0000 -0.0325737984
C   C107      1.0  0.17800  0.11300  0.67800  1.0000 -0.0325737984
C   C108      1.0  0.82200  0.11300  0.32200  1.0000 -0.0325737984
C   C109      1.0  0.17800  0.32200  0.11300  1.0000 -0.0325737984
C   C110      1.0  0.82200  0.67800  0.11300  1.0000 -0.0325737984
C   C111      1.0  0.17800  0.67800  0.88700  1.0000 -0.0325737984
C   C112      1.0  0.82200  0.32200  0.88700  1.0000 -0.0325737984
C   C113      1.0  0.32200  0.88700  0.82200  1.0000 -0.0325737984
C   C114      1.0  0.67800  0.88700  0.17800  1.0000 -0.0325737984
C   C115      1.0  0.67800  0.11300  0.82200  1.0000 -0.0325737984
C   C116      1.0  0.32200  0.11300  0.17800  1.0000 -0.0325737984
C   C117      1.0  0.88700  0.17800  0.67800  1.0000 -0.0325737984
C   C118      1.0  0.88700  0.82200  0.32200  1.0000 -0.0325737984
C   C119      1.0  0.11300  0.17800  0.32200  1.0000 -0.0325737984
C   C120      1.0  0.11300  0.82200  0.67800  1.0000 -0.0325737984
C   C121      1.0  0.67800  0.82200  0.11300  1.0000 -0.0325737984
C   C122      1.0  0.32200  0.17800  0.11300  1.0000 -0.0325737984
C   C123      1.0  0.32200  0.82200  0.88700  1.0000 -0.0325737984
C   C124      1.0  0.67800  0.17800  0.88700  1.0000 -0.0325737984
C   C125      1.0  0.11300  0.67800  0.82200  1.0000 -0.0325737984
C   C126      1.0  0.11300  0.32200  0.17800  1.0000 -0.0325737984
C   C127      1.0  0.88700  0.32200  0.82200  1.0000 -0.0325737984
C   C128      1.0  0.88700  0.67800  0.17800  1.0000 -0.0325737984
C   C129      1.0  0.82200  0.11300  0.67800  1.0000 -0.0325737984
C   C130      1.0  0.17800  0.11300  0.32200  1.0000 -0.0325737984
C   C131      1.0  0.82200  0.88700  0.32200  1.0000 -0.0325737984
C   C132      1.0  0.17800  0.88700  0.67800  1.0000 -0.0325737984
C   C133      1.0  0.82200  0.67800  0.88700  1.0000 -0.0325737984
C   C134      1.0  0.17800  0.32200  0.88700  1.0000 -0.0325737984
C   C135      1.0  0.82200  0.32200  0.11300  1.0000 -0.0325737984
C   C136      1.0  0.17800  0.67800  0.11300  1.0000 -0.0325737984
C   C137      1.0  0.67800  0.11300  0.17800  1.0000 -0.0325737984
C   C138      1.0  0.32200  0.11300  0.82200  1.0000 -0.0325737984
C   C139      1.0  0.32200  0.88700  0.17800  1.0000 -0.0325737984
C   C140      1.0  0.67800  0.88700  0.82200  1.0000 -0.0325737984
C   C141      1.0  0.11300  0.82200  0.32200  1.0000 -0.0325737984
C   C142      1.0  0.11300  0.17800  0.67800  1.0000 -0.0325737984
C   C143      1.0  0.88700  0.82200  0.67800  1.0000 -0.0325737984
C   C144      1.0  0.88700  0.17800  0.32200  1.0000 -0.0325737984
C   C145      1.0  0.32200  0.67800  0.38700  1.0000 -0.0325737984
C   C146      1.0  0.67800  0.32200  0.38700  1.0000 -0.0325737984
C   C147      1.0  0.67800  0.67800  0.61300  1.0000 -0.0325737984
C   C148      1.0  0.32200  0.32200  0.61300  1.0000 -0.0325737984
C   C149      1.0  0.17800  0.38700  0.82200  1.0000 -0.0325737984
C   C150      1.0  0.82200  0.38700  0.17800  1.0000 -0.0325737984
C   C151      1.0  0.17800  0.61300  0.17800  1.0000 -0.0325737984
C   C152      1.0  0.82200  0.61300  0.82200  1.0000 -0.0325737984
C   C153      1.0  0.17800  0.82200  0.61300  1.0000 -0.0325737984
C   C154      1.0  0.82200  0.17800  0.61300  1.0000 -0.0325737984
C   C155      1.0  0.17800  0.17800  0.38700  1.0000 -0.0325737984
C   C156      1.0  0.82200  0.82200  0.38700  1.0000 -0.0325737984
C   C157      1.0  0.32200  0.38700  0.32200  1.0000 -0.0325737984
C   C158      1.0  0.67800  0.38700  0.67800  1.0000 -0.0325737984
C   C159      1.0  0.67800  0.61300  0.32200  1.0000 -0.0325737984
C   C160      1.0  0.32200  0.61300  0.67800  1.0000 -0.0325737984
C   C161      1.0  0.67800  0.32200  0.61300  1.0000 -0.0325737984
C   C162      1.0  0.32200  0.67800  0.61300  1.0000 -0.0325737984
C   C163      1.0  0.32200  0.32200  0.38700  1.0000 -0.0325737984
C   C164      1.0  0.67800  0.67800  0.38700  1.0000 -0.0325737984
C   C165      1.0  0.82200  0.61300  0.17800  1.0000 -0.0325737984
C   C166      1.0  0.17800  0.61300  0.82200  1.0000 -0.0325737984
C   C167      1.0  0.82200  0.38700  0.82200  1.0000 -0.0325737984
C   C168      1.0  0.17800  0.38700  0.17800  1.0000 -0.0325737984
C   C169      1.0  0.82200  0.17800  0.38700  1.0000 -0.0325737984
C   C170      1.0  0.17800  0.82200  0.38700  1.0000 -0.0325737984
C   C171      1.0  0.82200  0.82200  0.61300  1.0000 -0.0325737984
C   C172      1.0  0.17800  0.17800  0.61300  1.0000 -0.0325737984
C   C173      1.0  0.67800  0.61300  0.67800  1.0000 -0.0325737984
C   C174      1.0  0.32200  0.61300  0.32200  1.0000 -0.0325737984
C   C175      1.0  0.32200  0.38700  0.67800  1.0000 -0.0325737984
C   C176      1.0  0.67800  0.38700  0.32200  1.0000 -0.0325737984
C   C177      1.0  0.38700  0.32200  0.67800  1.0000 -0.0325737984
C   C178      1.0  0.38700  0.67800  0.32200  1.0000 -0.0325737984
C   C179      1.0  0.61300  0.67800  0.67800  1.0000 -0.0325737984
C   C180      1.0  0.61300  0.32200  0.32200  1.0000 -0.0325737984
C   C181      1.0  0.38700  0.17800  0.17800  1.0000 -0.0325737984
C   C182      1.0  0.38700  0.82200  0.82200  1.0000 -0.0325737984
C   C183      1.0  0.61300  0.17800  0.82200  1.0000 -0.0325737984
C   C184      1.0  0.61300  0.82200  0.17800  1.0000 -0.0325737984
C   C185      1.0  0.61300  0.67800  0.32200  1.0000 -0.0325737984
C   C186      1.0  0.61300  0.32200  0.67800  1.0000 -0.0325737984
C   C187      1.0  0.38700  0.32200  0.32200  1.0000 -0.0325737984
C   C188      1.0  0.38700  0.67800  0.67800  1.0000 -0.0325737984
C   C189      1.0  0.61300  0.82200  0.82200  1.0000 -0.0325737984
C   C190      1.0  0.61300  0.17800  0.17800  1.0000 -0.0325737984
C   C191      1.0  0.38700  0.82200  0.17800  1.0000 -0.0325737984
C   C192      1.0  0.38700  0.17800  0.82200  1.0000 -0.0325737984
C   C193      1.0  0.36550  0.19940  0.86550  1.0000 -0.085282603
C   C194      1.0  0.63450  0.80060  0.86550  1.0000 -0.085282603
C   C195      1.0  0.63450  0.19940  0.13450  1.0000 -0.085282603
C   C196      1.0  0.36550  0.80060  0.13450  1.0000 -0.085282603
C   C197      1.0  0.86550  0.36550  0.19940  1.0000 -0.085282603
C   C198      1.0  0.86550  0.63450  0.80060  1.0000 -0.085282603
C   C199      1.0  0.13450  0.63450  0.19940  1.0000 -0.085282603
C   C200      1.0  0.13450  0.36550  0.80060  1.0000 -0.085282603
C   C201      1.0  0.19940  0.86550  0.36550  1.0000 -0.085282603
C   C202      1.0  0.80060  0.86550  0.63450  1.0000 -0.085282603
C   C203      1.0  0.19940  0.13450  0.63450  1.0000 -0.085282603
C   C204      1.0  0.80060  0.13450  0.36550  1.0000 -0.085282603
C   C205      1.0  0.19940  0.36550  0.13450  1.0000 -0.085282603
C   C206      1.0  0.80060  0.63450  0.13450  1.0000 -0.085282603
C   C207      1.0  0.19940  0.63450  0.86550  1.0000 -0.085282603
C   C208      1.0  0.80060  0.36550  0.86550  1.0000 -0.085282603
C   C209      1.0  0.36550  0.86550  0.80060  1.0000 -0.085282603
C   C210      1.0  0.63450  0.86550  0.19940  1.0000 -0.085282603
C   C211      1.0  0.63450  0.13450  0.80060  1.0000 -0.085282603
C   C212      1.0  0.36550  0.13450  0.19940  1.0000 -0.085282603
C   C213      1.0  0.86550  0.19940  0.63450  1.0000 -0.085282603
C   C214      1.0  0.86550  0.80060  0.36550  1.0000 -0.085282603
C   C215      1.0  0.13450  0.19940  0.36550  1.0000 -0.085282603
C   C216      1.0  0.13450  0.80060  0.63450  1.0000 -0.085282603
C   C217      1.0  0.63450  0.80060  0.13450  1.0000 -0.085282603
C   C218      1.0  0.36550  0.19940  0.13450  1.0000 -0.085282603
C   C219      1.0  0.36550  0.80060  0.86550  1.0000 -0.085282603
C   C220      1.0  0.63450  0.19940  0.86550  1.0000 -0.085282603
C   C221      1.0  0.13450  0.63450  0.80060  1.0000 -0.085282603
C   C222      1.0  0.13450  0.36550  0.19940  1.0000 -0.085282603
C   C223      1.0  0.86550  0.36550  0.80060  1.0000 -0.085282603
C   C224      1.0  0.86550  0.63450  0.19940  1.0000 -0.085282603
C   C225      1.0  0.80060  0.13450  0.63450  1.0000 -0.085282603
C   C226      1.0  0.19940  0.13450  0.36550  1.0000 -0.085282603
C   C227      1.0  0.80060  0.86550  0.36550  1.0000 -0.085282603
C   C228      1.0  0.19940  0.86550  0.63450  1.0000 -0.085282603
C   C229      1.0  0.80060  0.63450  0.86550  1.0000 -0.085282603
C   C230      1.0  0.19940  0.36550  0.86550  1.0000 -0.085282603
C   C231      1.0  0.80060  0.36550  0.13450  1.0000 -0.085282603
C   C232      1.0  0.19940  0.63450  0.13450  1.0000 -0.085282603
C   C233      1.0  0.63450  0.13450  0.19940  1.0000 -0.085282603
C   C234      1.0  0.36550  0.13450  0.80060  1.0000 -0.085282603
C   C235      1.0  0.36550  0.86550  0.19940  1.0000 -0.085282603
C   C236      1.0  0.63450  0.86550  0.80060  1.0000 -0.085282603
C   C237      1.0  0.13450  0.80060  0.36550  1.0000 -0.085282603
C   C238      1.0  0.13450  0.19940  0.63450  1.0000 -0.085282603
C   C239      1.0  0.86550  0.80060  0.63450  1.0000 -0.085282603
C   C240      1.0  0.86550  0.19940  0.36550  1.0000 -0.085282603
C   C241      1.0  0.36550  0.69940  0.36550  1.0000 -0.085282603
C   C242      1.0  0.63450  0.30060  0.36550  1.0000 -0.085282603
C   C243      1.0  0.63450  0.69940  0.63450  1.0000 -0.085282603
C   C244      1.0  0.36550  0.30060  0.63450  1.0000 -0.085282603
C   C245      1.0  0.86550  0.86550  0.69940  1.0000 -0.085282603
C   C246      1.0  0.86550  0.13450  0.30060  1.0000 -0.085282603
C   C247      1.0  0.13450  0.13450  0.69940  1.0000 -0.085282603
C   C248      1.0  0.13450  0.86550  0.30060  1.0000 -0.085282603
C   C249      1.0  0.36550  0.36550  0.30060  1.0000 -0.085282603
C   C250      1.0  0.63450  0.36550  0.69940  1.0000 -0.085282603
C   C251      1.0  0.63450  0.63450  0.30060  1.0000 -0.085282603
C   C252      1.0  0.36550  0.63450  0.69940  1.0000 -0.085282603
C   C253      1.0  0.86550  0.69940  0.13450  1.0000 -0.085282603
C   C254      1.0  0.86550  0.30060  0.86550  1.0000 -0.085282603
C   C255      1.0  0.13450  0.69940  0.86550  1.0000 -0.085282603
C   C256      1.0  0.13450  0.30060  0.13450  1.0000 -0.085282603
C   C257      1.0  0.63450  0.30060  0.63450  1.0000 -0.085282603
C   C258      1.0  0.36550  0.69940  0.63450  1.0000 -0.085282603
C   C259      1.0  0.36550  0.30060  0.36550  1.0000 -0.085282603
C   C260      1.0  0.63450  0.69940  0.36550  1.0000 -0.085282603
C   C261      1.0  0.13450  0.13450  0.30060  1.0000 -0.085282603
C   C262      1.0  0.13450  0.86550  0.69940  1.0000 -0.085282603
C   C263      1.0  0.86550  0.86550  0.30060  1.0000 -0.085282603
C   C264      1.0  0.86550  0.13450  0.69940  1.0000 -0.085282603
C   C265      1.0  0.63450  0.63450  0.69940  1.0000 -0.085282603
C   C266      1.0  0.36550  0.63450  0.30060  1.0000 -0.085282603
C   C267      1.0  0.36550  0.36550  0.69940  1.0000 -0.085282603
C   C268      1.0  0.63450  0.36550  0.30060  1.0000 -0.085282603
C   C269      1.0  0.13450  0.30060  0.86550  1.0000 -0.085282603
C   C270      1.0  0.13450  0.69940  0.13450  1.0000 -0.085282603
C   C271      1.0  0.86550  0.30060  0.13450  1.0000 -0.085282603
C   C272      1.0  0.86550  0.69940  0.86550  1.0000 -0.085282603
C   C273      1.0  0.69940  0.86550  0.86550  1.0000 -0.085282603
C   C274      1.0  0.30060  0.86550  0.13450  1.0000 -0.085282603
C   C275      1.0  0.69940  0.13450  0.13450  1.0000 -0.085282603
C   C276      1.0  0.30060  0.13450  0.86550  1.0000 -0.085282603
C   C277      1.0  0.69940  0.36550  0.63450  1.0000 -0.085282603
C   C278      1.0  0.30060  0.63450  0.63450  1.0000 -0.085282603
C   C279      1.0  0.69940  0.63450  0.36550  1.0000 -0.085282603
C   C280      1.0  0.30060  0.36550  0.36550  1.0000 -0.085282603
C   C281      1.0  0.30060  0.13450  0.13450  1.0000 -0.085282603
C   C282      1.0  0.69940  0.13450  0.86550  1.0000 -0.085282603
C   C283      1.0  0.30060  0.86550  0.86550  1.0000 -0.085282603
C   C284      1.0  0.69940  0.86550  0.13450  1.0000 -0.085282603
C   C285      1.0  0.30060  0.63450  0.36550  1.0000 -0.085282603
C   C286      1.0  0.69940  0.36550  0.36550  1.0000 -0.085282603
C   C287      1.0  0.30060  0.36550  0.63450  1.0000 -0.085282603
C   C288      1.0  0.69940  0.63450  0.63450  1.0000 -0.085282603
O   O1        1.0  0.31660  0.24310  0.94780  1.0000 -0.5135998341
O   O2        1.0  0.68340  0.75690  0.94780  1.0000 -0.5135998341
O   O3        1.0  0.68340  0.24310  0.05220  1.0000 -0.5135998341
O   O4        1.0  0.31660  0.75690  0.05220  1.0000 -0.5135998341
O   O5        1.0  0.94780  0.31660  0.24310  1.0000 -0.5135998341
O   O6        1.0  0.94780  0.68340  0.75690  1.0000 -0.5135998341
O   O7        1.0  0.05220  0.68340  0.24310  1.0000 -0.5135998341
O   O8        1.0  0.05220  0.31660  0.75690  1.0000 -0.5135998341
O   O9        1.0  0.24310  0.94780  0.31660  1.0000 -0.5135998341
O   O10       1.0  0.75690  0.94780  0.68340  1.0000 -0.5135998341
O   O11       1.0  0.24310  0.05220  0.68340  1.0000 -0.5135998341
O   O12       1.0  0.75690  0.05220  0.31660  1.0000 -0.5135998341
O   O13       1.0  0.24310  0.31660  0.05220  1.0000 -0.5135998341
O   O14       1.0  0.75690  0.68340  0.05220  1.0000 -0.5135998341
O   O15       1.0  0.24310  0.68340  0.94780  1.0000 -0.5135998341
O   O16       1.0  0.75690  0.31660  0.94780  1.0000 -0.5135998341
O   O17       1.0  0.31660  0.94780  0.75690  1.0000 -0.5135998341
O   O18       1.0  0.68340  0.94780  0.24310  1.0000 -0.5135998341
O   O19       1.0  0.68340  0.05220  0.75690  1.0000 -0.5135998341
O   O20       1.0  0.31660  0.05220  0.24310  1.0000 -0.5135998341
O   O21       1.0  0.94780  0.24310  0.68340  1.0000 -0.5135998341
O   O22       1.0  0.94780  0.75690  0.31660  1.0000 -0.5135998341
O   O23       1.0  0.05220  0.24310  0.31660  1.0000 -0.5135998341
O   O24       1.0  0.05220  0.75690  0.68340  1.0000 -0.5135998341
O   O25       1.0  0.68340  0.75690  0.05220  1.0000 -0.5135998341
O   O26       1.0  0.31660  0.24310  0.05220  1.0000 -0.5135998341
O   O27       1.0  0.31660  0.75690  0.94780  1.0000 -0.5135998341
O   O28       1.0  0.68340  0.24310  0.94780  1.0000 -0.5135998341
O   O29       1.0  0.05220  0.68340  0.75690  1.0000 -0.5135998341
O   O30       1.0  0.05220  0.31660  0.24310  1.0000 -0.5135998341
O   O31       1.0  0.94780  0.31660  0.75690  1.0000 -0.5135998341
O   O32       1.0  0.94780  0.68340  0.24310  1.0000 -0.5135998341
O   O33       1.0  0.75690  0.05220  0.68340  1.0000 -0.5135998341
O   O34       1.0  0.24310  0.05220  0.31660  1.0000 -0.5135998341
O   O35       1.0  0.75690  0.94780  0.31660  1.0000 -0.5135998341
O   O36       1.0  0.24310  0.94780  0.68340  1.0000 -0.5135998341
O   O37       1.0  0.75690  0.68340  0.94780  1.0000 -0.5135998341
O   O38       1.0  0.24310  0.31660  0.94780  1.0000 -0.5135998341
O   O39       1.0  0.75690  0.31660  0.05220  1.0000 -0.5135998341
O   O40       1.0  0.24310  0.68340  0.05220  1.0000 -0.5135998341
O   O41       1.0  0.68340  0.05220  0.24310  1.0000 -0.5135998341
O   O42       1.0  0.31660  0.05220  0.75690  1.0000 -0.5135998341
O   O43       1.0  0.31660  0.94780  0.24310  1.0000 -0.5135998341
O   O44       1.0  0.68340  0.94780  0.75690  1.0000 -0.5135998341
O   O45       1.0  0.05220  0.75690  0.31660  1.0000 -0.5135998341
O   O46       1.0  0.05220  0.24310  0.68340  1.0000 -0.5135998341
O   O47       1.0  0.94780  0.75690  0.68340  1.0000 -0.5135998341
O   O48       1.0  0.94780  0.24310  0.31660  1.0000 -0.5135998341
O   O49       1.0  0.31660  0.74310  0.44780  1.0000 -0.5135998341
O   O50       1.0  0.68340  0.25690  0.44780  1.0000 -0.5135998341
O   O51       1.0  0.68340  0.74310  0.55220  1.0000 -0.5135998341
O   O52       1.0  0.31660  0.25690  0.55220  1.0000 -0.5135998341
O   O53       1.0  0.94780  0.81660  0.74310  1.0000 -0.5135998341
O   O54       1.0  0.94780  0.18340  0.25690  1.0000 -0.5135998341
O   O55       1.0  0.05220  0.18340  0.74310  1.0000 -0.5135998341
O   O56       1.0  0.05220  0.81660  0.25690  1.0000 -0.5135998341
O   O57       1.0  0.24310  0.44780  0.81660  1.0000 -0.5135998341
O   O58       1.0  0.75690  0.44780  0.18340  1.0000 -0.5135998341
O   O59       1.0  0.24310  0.55220  0.18340  1.0000 -0.5135998341
O   O60       1.0  0.75690  0.55220  0.81660  1.0000 -0.5135998341
O   O61       1.0  0.24310  0.81660  0.55220  1.0000 -0.5135998341
O   O62       1.0  0.75690  0.18340  0.55220  1.0000 -0.5135998341
O   O63       1.0  0.24310  0.18340  0.44780  1.0000 -0.5135998341
O   O64       1.0  0.75690  0.81660  0.44780  1.0000 -0.5135998341
O   O65       1.0  0.31660  0.44780  0.25690  1.0000 -0.5135998341
O   O66       1.0  0.68340  0.44780  0.74310  1.0000 -0.5135998341
O   O67       1.0  0.68340  0.55220  0.25690  1.0000 -0.5135998341
O   O68       1.0  0.31660  0.55220  0.74310  1.0000 -0.5135998341
O   O69       1.0  0.94780  0.74310  0.18340  1.0000 -0.5135998341
O   O70       1.0  0.94780  0.25690  0.81660  1.0000 -0.5135998341
O   O71       1.0  0.05220  0.74310  0.81660  1.0000 -0.5135998341
O   O72       1.0  0.05220  0.25690  0.18340  1.0000 -0.5135998341
O   O73       1.0  0.68340  0.25690  0.55220  1.0000 -0.5135998341
O   O74       1.0  0.31660  0.74310  0.55220  1.0000 -0.5135998341
O   O75       1.0  0.31660  0.25690  0.44780  1.0000 -0.5135998341
O   O76       1.0  0.68340  0.74310  0.44780  1.0000 -0.5135998341
O   O77       1.0  0.05220  0.18340  0.25690  1.0000 -0.5135998341
O   O78       1.0  0.05220  0.81660  0.74310  1.0000 -0.5135998341
O   O79       1.0  0.94780  0.81660  0.25690  1.0000 -0.5135998341
O   O80       1.0  0.94780  0.18340  0.74310  1.0000 -0.5135998341
O   O81       1.0  0.75690  0.55220  0.18340  1.0000 -0.5135998341
O   O82       1.0  0.24310  0.55220  0.81660  1.0000 -0.5135998341
O   O83       1.0  0.75690  0.44780  0.81660  1.0000 -0.5135998341
O   O84       1.0  0.24310  0.44780  0.18340  1.0000 -0.5135998341
O   O85       1.0  0.75690  0.18340  0.44780  1.0000 -0.5135998341
O   O86       1.0  0.24310  0.81660  0.44780  1.0000 -0.5135998341
O   O87       1.0  0.75690  0.81660  0.55220  1.0000 -0.5135998341
O   O88       1.0  0.24310  0.18340  0.55220  1.0000 -0.5135998341
O   O89       1.0  0.68340  0.55220  0.74310  1.0000 -0.5135998341
O   O90       1.0  0.31660  0.55220  0.25690  1.0000 -0.5135998341
O   O91       1.0  0.31660  0.44780  0.74310  1.0000 -0.5135998341
O   O92       1.0  0.68340  0.44780  0.25690  1.0000 -0.5135998341
O   O93       1.0  0.05220  0.25690  0.81660  1.0000 -0.5135998341
O   O94       1.0  0.05220  0.74310  0.18340  1.0000 -0.5135998341
O   O95       1.0  0.94780  0.25690  0.18340  1.0000 -0.5135998341
O   O96       1.0  0.94780  0.74310  0.81660  1.0000 -0.5135998341
O   O97       1.0  0.81660  0.24310  0.44780  1.0000 -0.5135998341
O   O98       1.0  0.18340  0.75690  0.44780  1.0000 -0.5135998341
O   O99       1.0  0.18340  0.24310  0.55220  1.0000 -0.5135998341
O   O100      1.0  0.81660  0.75690  0.55220  1.0000 -0.5135998341
O   O101      1.0  0.44780  0.31660  0.74310  1.0000 -0.5135998341
O   O102      1.0  0.44780  0.68340  0.25690  1.0000 -0.5135998341
O   O103      1.0  0.55220  0.68340  0.74310  1.0000 -0.5135998341
O   O104      1.0  0.55220  0.31660  0.25690  1.0000 -0.5135998341
O   O105      1.0  0.74310  0.94780  0.81660  1.0000 -0.5135998341
O   O106      1.0  0.25690  0.94780  0.18340  1.0000 -0.5135998341
O   O107      1.0  0.74310  0.05220  0.18340  1.0000 -0.5135998341
O   O108      1.0  0.25690  0.05220  0.81660  1.0000 -0.5135998341
O   O109      1.0  0.74310  0.31660  0.55220  1.0000 -0.5135998341
O   O110      1.0  0.25690  0.68340  0.55220  1.0000 -0.5135998341
O   O111      1.0  0.74310  0.68340  0.44780  1.0000 -0.5135998341
O   O112      1.0  0.25690  0.31660  0.44780  1.0000 -0.5135998341
O   O113      1.0  0.81660  0.94780  0.25690  1.0000 -0.5135998341
O   O114      1.0  0.18340  0.94780  0.74310  1.0000 -0.5135998341
O   O115      1.0  0.18340  0.05220  0.25690  1.0000 -0.5135998341
O   O116      1.0  0.81660  0.05220  0.74310  1.0000 -0.5135998341
O   O117      1.0  0.44780  0.24310  0.18340  1.0000 -0.5135998341
O   O118      1.0  0.44780  0.75690  0.81660  1.0000 -0.5135998341
O   O119      1.0  0.55220  0.24310  0.81660  1.0000 -0.5135998341
O   O120      1.0  0.55220  0.75690  0.18340  1.0000 -0.5135998341
O   O121      1.0  0.18340  0.75690  0.55220  1.0000 -0.5135998341
O   O122      1.0  0.81660  0.24310  0.55220  1.0000 -0.5135998341
O   O123      1.0  0.81660  0.75690  0.44780  1.0000 -0.5135998341
O   O124      1.0  0.18340  0.24310  0.44780  1.0000 -0.5135998341
O   O125      1.0  0.55220  0.68340  0.25690  1.0000 -0.5135998341
O   O126      1.0  0.55220  0.31660  0.74310  1.0000 -0.5135998341
O   O127      1.0  0.44780  0.31660  0.25690  1.0000 -0.5135998341
O   O128      1.0  0.44780  0.68340  0.74310  1.0000 -0.5135998341
O   O129      1.0  0.25690  0.05220  0.18340  1.0000 -0.5135998341
O   O130      1.0  0.74310  0.05220  0.81660  1.0000 -0.5135998341
O   O131      1.0  0.25690  0.94780  0.81660  1.0000 -0.5135998341
O   O132      1.0  0.74310  0.94780  0.18340  1.0000 -0.5135998341
O   O133      1.0  0.25690  0.68340  0.44780  1.0000 -0.5135998341
O   O134      1.0  0.74310  0.31660  0.44780  1.0000 -0.5135998341
O   O135      1.0  0.25690  0.31660  0.55220  1.0000 -0.5135998341
O   O136      1.0  0.74310  0.68340  0.55220  1.0000 -0.5135998341
O   O137      1.0  0.18340  0.05220  0.74310  1.0000 -0.5135998341
O   O138      1.0  0.81660  0.05220  0.25690  1.0000 -0.5135998341
O   O139      1.0  0.81660  0.94780  0.74310  1.0000 -0.5135998341
O   O140      1.0  0.18340  0.94780  0.25690  1.0000 -0.5135998341
O   O141      1.0  0.55220  0.75690  0.81660  1.0000 -0.5135998341
O   O142      1.0  0.55220  0.24310  0.18340  1.0000 -0.5135998341
O   O143      1.0  0.44780  0.75690  0.18340  1.0000 -0.5135998341
O   O144      1.0  0.44780  0.24310  0.81660  1.0000 -0.5135998341
O   O145      1.0  0.81660  0.74310  0.94780  1.0000 -0.5135998341
O   O146      1.0  0.18340  0.25690  0.94780  1.0000 -0.5135998341
O   O147      1.0  0.18340  0.74310  0.05220  1.0000 -0.5135998341
O   O148      1.0  0.81660  0.25690  0.05220  1.0000 -0.5135998341
O   O149      1.0  0.44780  0.81660  0.24310  1.0000 -0.5135998341
O   O150      1.0  0.44780  0.18340  0.75690  1.0000 -0.5135998341
O   O151      1.0  0.55220  0.18340  0.24310  1.0000 -0.5135998341
O   O152      1.0  0.55220  0.81660  0.75690  1.0000 -0.5135998341
O   O153      1.0  0.74310  0.44780  0.31660  1.0000 -0.5135998341
O   O154      1.0  0.25690  0.44780  0.68340  1.0000 -0.5135998341
O   O155      1.0  0.74310  0.55220  0.68340  1.0000 -0.5135998341
O   O156      1.0  0.25690  0.55220  0.31660  1.0000 -0.5135998341
O   O157      1.0  0.74310  0.81660  0.05220  1.0000 -0.5135998341
O   O158      1.0  0.25690  0.18340  0.05220  1.0000 -0.5135998341
O   O159      1.0  0.74310  0.18340  0.94780  1.0000 -0.5135998341
O   O160      1.0  0.25690  0.81660  0.94780  1.0000 -0.5135998341
O   O161      1.0  0.81660  0.44780  0.75690  1.0000 -0.5135998341
O   O162      1.0  0.18340  0.44780  0.24310  1.0000 -0.5135998341
O   O163      1.0  0.18340  0.55220  0.75690  1.0000 -0.5135998341
O   O164      1.0  0.81660  0.55220  0.24310  1.0000 -0.5135998341
O   O165      1.0  0.44780  0.74310  0.68340  1.0000 -0.5135998341
O   O166      1.0  0.44780  0.25690  0.31660  1.0000 -0.5135998341
O   O167      1.0  0.55220  0.74310  0.31660  1.0000 -0.5135998341
O   O168      1.0  0.55220  0.25690  0.68340  1.0000 -0.5135998341
O   O169      1.0  0.18340  0.25690  0.05220  1.0000 -0.5135998341
O   O170      1.0  0.81660  0.74310  0.05220  1.0000 -0.5135998341
O   O171      1.0  0.81660  0.25690  0.94780  1.0000 -0.5135998341
O   O172      1.0  0.18340  0.74310  0.94780  1.0000 -0.5135998341
O   O173      1.0  0.55220  0.18340  0.75690  1.0000 -0.5135998341
O   O174      1.0  0.55220  0.81660  0.24310  1.0000 -0.5135998341
O   O175      1.0  0.44780  0.81660  0.75690  1.0000 -0.5135998341
O   O176      1.0  0.44780  0.18340  0.24310  1.0000 -0.5135998341
O   O177      1.0  0.25690  0.55220  0.68340  1.0000 -0.5135998341
O   O178      1.0  0.74310  0.55220  0.31660  1.0000 -0.5135998341
O   O179      1.0  0.25690  0.44780  0.31660  1.0000 -0.5135998341
O   O180      1.0  0.74310  0.44780  0.68340  1.0000 -0.5135998341
O   O181      1.0  0.25690  0.18340  0.94780  1.0000 -0.5135998341
O   O182      1.0  0.74310  0.81660  0.94780  1.0000 -0.5135998341
O   O183      1.0  0.25690  0.81660  0.05220  1.0000 -0.5135998341
O   O184      1.0  0.74310  0.18340  0.05220  1.0000 -0.5135998341
O   O185      1.0  0.18340  0.55220  0.24310  1.0000 -0.5135998341
O   O186      1.0  0.81660  0.55220  0.75690  1.0000 -0.5135998341
O   O187      1.0  0.81660  0.44780  0.24310  1.0000 -0.5135998341
O   O188      1.0  0.18340  0.44780  0.75690  1.0000 -0.5135998341
O   O189      1.0  0.55220  0.25690  0.31660  1.0000 -0.5135998341
O   O190      1.0  0.55220  0.74310  0.68340  1.0000 -0.5135998341
O   O191      1.0  0.44780  0.25690  0.68340  1.0000 -0.5135998341
O   O192      1.0  0.44780  0.74310  0.31660  1.0000 -0.5135998341
