# generated by PACMAN (https://github.com/sxm13/PACMAN/)
data_structure
_chemical_formula_sum              "Zr24 H96 C192 O120"
_cell_length_a       20.7004
_cell_length_b       20.7004
_cell_length_c       20.7004
_cell_angle_alpha    90
_cell_angle_beta     90
_cell_angle_gamma    90

_symmetry_space_group_name_H-M    "P 1"
_symmetry_Int_Tables_number       1

loop_
  _symmetry_equiv_pos_as_xyz
  'x, y, z'

loop_
  _atom_site_type_symbol
  _atom_site_label
  _atom_site_symmetry_multiplicity
  _atom_site_fract_x
  _atom_site_fract_y
  _atom_site_fract_z
  _atom_site_occupancy
  _atom_site_charge
Zr  Zr1       1.0  0.11989  0.00000  0.00000  1.0000 2.2606142424
Zr  Zr2       1.0  0.11989  0.50000  0.50000  1.0000 2.2606142424
Zr  Zr3       1.0  0.61989  0.00000  0.50000  1.0000 2.2606142424
Zr  Zr4       1.0  0.61989  0.50000  0.00000  1.0000 2.2652369402
Zr  Zr5       1.0  0.88011  0.00000  0.00000  1.0000 2.2606142424
Zr  Zr6       1.0  0.88011  0.50000  0.50000  1.0000 2.2606142424
Zr  Zr7       1.0  0.38011  0.00000  0.50000  1.0000 2.2606142424
Zr  Zr8       1.0  0.38011  0.50000  0.00000  1.0000 2.2652369402
Zr  Zr9       1.0  0.00000  0.11989  0.00000  1.0000 2.2606142424
Zr  Zr10      1.0  0.00000  0.61989  0.50000  1.0000 2.1433320902
Zr  Zr11      1.0  0.50000  0.11989  0.50000  1.0000 2.2606142424
Zr  Zr12      1.0  0.50000  0.61989  0.00000  1.0000 2.2652369402
Zr  Zr13      1.0  0.00000  0.88011  0.00000  1.0000 2.2606142424
Zr  Zr14      1.0  0.00000  0.38011  0.50000  1.0000 2.3230567835
Zr  Zr15      1.0  0.50000  0.88011  0.50000  1.0000 2.2606142424
Zr  Zr16      1.0  0.50000  0.38011  0.00000  1.0000 2.2652369402
Zr  Zr17      1.0  0.00000  0.00000  0.11989  1.0000 2.3230567835
Zr  Zr18      1.0  0.00000  0.50000  0.61989  1.0000 2.2606142424
Zr  Zr19      1.0  0.50000  0.00000  0.61989  1.0000 2.14548501
Zr  Zr20      1.0  0.50000  0.50000  0.11989  1.0000 2.2652369402
Zr  Zr21      1.0  0.00000  0.00000  0.88011  1.0000 2.14548501
Zr  Zr22      1.0  0.00000  0.50000  0.38011  1.0000 2.2606142424
Zr  Zr23      1.0  0.50000  0.00000  0.38011  1.0000 2.3230567835
Zr  Zr24      1.0  0.50000  0.50000  0.88011  1.0000 2.2652369402
H   H1        1.0  0.27872  0.00000  0.13048  1.0000 0.0942565476
H   H2        1.0  0.27872  0.50000  0.63048  1.0000 0.0968072433
H   H3        1.0  0.77872  0.00000  0.63048  1.0000 0.0968072433
H   H4        1.0  0.77872  0.50000  0.13048  1.0000 0.0942565476
H   H5        1.0  0.72128  0.00000  0.13048  1.0000 0.0942565476
H   H6        1.0  0.72128  0.50000  0.63048  1.0000 0.0942565476
H   H7        1.0  0.22128  0.00000  0.63048  1.0000 0.0968072433
H   H8        1.0  0.22128  0.50000  0.13048  1.0000 0.0968072433
H   H9        1.0  0.72128  0.00000  0.86952  1.0000 0.0968072433
H   H10       1.0  0.72128  0.50000  0.36952  1.0000 0.0968072433
H   H11       1.0  0.22128  0.00000  0.36952  1.0000 0.0942565476
H   H12       1.0  0.22128  0.50000  0.86952  1.0000 0.0942565476
H   H13       1.0  0.27872  0.00000  0.86952  1.0000 0.0968072433
H   H14       1.0  0.27872  0.50000  0.36952  1.0000 0.0942565476
H   H15       1.0  0.77872  0.00000  0.36952  1.0000 0.0942565476
H   H16       1.0  0.77872  0.50000  0.86952  1.0000 0.0968072433
H   H17       1.0  0.13048  0.27872  0.00000  1.0000 0.0942565476
H   H18       1.0  0.13048  0.77872  0.50000  1.0000 0.0968072433
H   H19       1.0  0.63048  0.27872  0.50000  1.0000 0.0968072433
H   H20       1.0  0.63048  0.77872  0.00000  1.0000 0.0968072433
H   H21       1.0  0.13048  0.72128  0.00000  1.0000 0.0968072433
H   H22       1.0  0.13048  0.22128  0.50000  1.0000 0.0942565476
H   H23       1.0  0.63048  0.72128  0.50000  1.0000 0.0942565476
H   H24       1.0  0.63048  0.22128  0.00000  1.0000 0.0942565476
H   H25       1.0  0.86952  0.72128  0.00000  1.0000 0.0942565476
H   H26       1.0  0.86952  0.22128  0.50000  1.0000 0.0942565476
H   H27       1.0  0.36952  0.72128  0.50000  1.0000 0.0968072433
H   H28       1.0  0.36952  0.22128  0.00000  1.0000 0.0968072433
H   H29       1.0  0.86952  0.27872  0.00000  1.0000 0.0968072433
H   H30       1.0  0.86952  0.77872  0.50000  1.0000 0.0968072433
H   H31       1.0  0.36952  0.27872  0.50000  1.0000 0.0942565476
H   H32       1.0  0.36952  0.77872  0.00000  1.0000 0.0942565476
H   H33       1.0  0.00000  0.13048  0.27872  1.0000 0.0942565476
H   H34       1.0  0.00000  0.63048  0.77872  1.0000 0.0968072433
H   H35       1.0  0.50000  0.13048  0.77872  1.0000 0.0968072433
H   H36       1.0  0.50000  0.63048  0.27872  1.0000 0.0942565476
H   H37       1.0  0.00000  0.13048  0.72128  1.0000 0.0968072433
H   H38       1.0  0.00000  0.63048  0.22128  1.0000 0.0968072433
H   H39       1.0  0.50000  0.13048  0.22128  1.0000 0.0942565476
H   H40       1.0  0.50000  0.63048  0.72128  1.0000 0.0968072433
H   H41       1.0  0.00000  0.86952  0.72128  1.0000 0.0968072433
H   H42       1.0  0.00000  0.36952  0.22128  1.0000 0.0942565476
H   H43       1.0  0.50000  0.86952  0.22128  1.0000 0.0942565476
H   H44       1.0  0.50000  0.36952  0.72128  1.0000 0.0942565476
H   H45       1.0  0.00000  0.86952  0.27872  1.0000 0.0942565476
H   H46       1.0  0.00000  0.36952  0.77872  1.0000 0.0942565476
H   H47       1.0  0.50000  0.86952  0.77872  1.0000 0.0968072433
H   H48       1.0  0.50000  0.36952  0.27872  1.0000 0.0968072433
H   H49       1.0  0.00000  0.27872  0.86952  1.0000 0.0968072433
H   H50       1.0  0.00000  0.77872  0.36952  1.0000 0.0968072433
H   H51       1.0  0.50000  0.27872  0.36952  1.0000 0.0942565476
H   H52       1.0  0.50000  0.77872  0.86952  1.0000 0.0968072433
H   H53       1.0  0.00000  0.72128  0.86952  1.0000 0.0968072433
H   H54       1.0  0.00000  0.22128  0.36952  1.0000 0.0942565476
H   H55       1.0  0.50000  0.72128  0.36952  1.0000 0.0942565476
H   H56       1.0  0.50000  0.22128  0.86952  1.0000 0.0942565476
H   H57       1.0  0.00000  0.72128  0.13048  1.0000 0.0942565476
H   H58       1.0  0.00000  0.22128  0.63048  1.0000 0.0942565476
H   H59       1.0  0.50000  0.72128  0.63048  1.0000 0.0968072433
H   H60       1.0  0.50000  0.22128  0.13048  1.0000 0.0968072433
H   H61       1.0  0.00000  0.27872  0.13048  1.0000 0.0942565476
H   H62       1.0  0.00000  0.77872  0.63048  1.0000 0.0968072433
H   H63       1.0  0.50000  0.27872  0.63048  1.0000 0.0968072433
H   H64       1.0  0.50000  0.77872  0.13048  1.0000 0.0942565476
H   H65       1.0  0.27872  0.13048  0.00000  1.0000 0.0942565476
H   H66       1.0  0.27872  0.63048  0.50000  1.0000 0.0968072433
H   H67       1.0  0.77872  0.13048  0.50000  1.0000 0.0968072433
H   H68       1.0  0.77872  0.63048  0.00000  1.0000 0.0968072433
H   H69       1.0  0.72128  0.13048  0.00000  1.0000 0.0968072433
H   H70       1.0  0.72128  0.63048  0.50000  1.0000 0.0968072433
H   H71       1.0  0.22128  0.13048  0.50000  1.0000 0.0942565476
H   H72       1.0  0.22128  0.63048  0.00000  1.0000 0.0942565476
H   H73       1.0  0.72128  0.86952  0.00000  1.0000 0.0942565476
H   H74       1.0  0.72128  0.36952  0.50000  1.0000 0.0942565476
H   H75       1.0  0.22128  0.86952  0.50000  1.0000 0.0968072433
H   H76       1.0  0.22128  0.36952  0.00000  1.0000 0.0968072433
H   H77       1.0  0.27872  0.86952  0.00000  1.0000 0.0968072433
H   H78       1.0  0.27872  0.36952  0.50000  1.0000 0.0968072433
H   H79       1.0  0.77872  0.86952  0.50000  1.0000 0.0942565476
H   H80       1.0  0.77872  0.36952  0.00000  1.0000 0.0942565476
H   H81       1.0  0.13048  0.00000  0.72128  1.0000 0.0968072433
H   H82       1.0  0.13048  0.50000  0.22128  1.0000 0.0942565476
H   H83       1.0  0.63048  0.00000  0.22128  1.0000 0.0942565476
H   H84       1.0  0.63048  0.50000  0.72128  1.0000 0.0968072433
H   H85       1.0  0.13048  0.00000  0.27872  1.0000 0.0942565476
H   H86       1.0  0.13048  0.50000  0.77872  1.0000 0.0968072433
H   H87       1.0  0.63048  0.00000  0.77872  1.0000 0.0968072433
H   H88       1.0  0.63048  0.50000  0.27872  1.0000 0.0942565476
H   H89       1.0  0.86952  0.00000  0.27872  1.0000 0.0942565476
H   H90       1.0  0.86952  0.50000  0.77872  1.0000 0.0942565476
H   H91       1.0  0.36952  0.00000  0.77872  1.0000 0.0968072433
H   H92       1.0  0.36952  0.50000  0.27872  1.0000 0.0968072433
H   H93       1.0  0.86952  0.00000  0.72128  1.0000 0.0968072433
H   H94       1.0  0.86952  0.50000  0.22128  1.0000 0.0968072433
H   H95       1.0  0.36952  0.00000  0.22128  1.0000 0.0942565476
H   H96       1.0  0.36952  0.50000  0.72128  1.0000 0.0942565476
C   C1        1.0  0.26750  0.00000  0.18440  1.0000 -0.0808901722
C   C2        1.0  0.26750  0.50000  0.68440  1.0000 -0.0808901722
C   C3        1.0  0.76750  0.00000  0.68440  1.0000 -0.0808901722
C   C4        1.0  0.76750  0.50000  0.18440  1.0000 -0.0808901722
C   C5        1.0  0.73250  0.00000  0.18440  1.0000 -0.0808901722
C   C6        1.0  0.73250  0.50000  0.68440  1.0000 -0.0808901722
C   C7        1.0  0.23250  0.00000  0.68440  1.0000 -0.0808901722
C   C8        1.0  0.23250  0.50000  0.18440  1.0000 -0.0808901722
C   C9        1.0  0.73250  0.00000  0.81560  1.0000 -0.0808901722
C   C10       1.0  0.73250  0.50000  0.31560  1.0000 -0.0808901722
C   C11       1.0  0.23250  0.00000  0.31560  1.0000 -0.0808901722
C   C12       1.0  0.23250  0.50000  0.81560  1.0000 -0.0808901722
C   C13       1.0  0.26750  0.00000  0.81560  1.0000 -0.0808901722
C   C14       1.0  0.26750  0.50000  0.31560  1.0000 -0.0808901722
C   C15       1.0  0.76750  0.00000  0.31560  1.0000 -0.0808901722
C   C16       1.0  0.76750  0.50000  0.81560  1.0000 -0.0808901722
C   C17       1.0  0.18440  0.26750  0.00000  1.0000 -0.0808901722
C   C18       1.0  0.18440  0.76750  0.50000  1.0000 -0.0808901722
C   C19       1.0  0.68440  0.26750  0.50000  1.0000 -0.0808901722
C   C20       1.0  0.68440  0.76750  0.00000  1.0000 -0.0808901722
C   C21       1.0  0.18440  0.73250  0.00000  1.0000 -0.0808901722
C   C22       1.0  0.18440  0.23250  0.50000  1.0000 -0.0808901722
C   C23       1.0  0.68440  0.73250  0.50000  1.0000 -0.0808901722
C   C24       1.0  0.68440  0.23250  0.00000  1.0000 -0.0808901722
C   C25       1.0  0.81560  0.73250  0.00000  1.0000 -0.0808901722
C   C26       1.0  0.81560  0.23250  0.50000  1.0000 -0.0808901722
C   C27       1.0  0.31560  0.73250  0.50000  1.0000 -0.0808901722
C   C28       1.0  0.31560  0.23250  0.00000  1.0000 -0.0808901722
C   C29       1.0  0.81560  0.26750  0.00000  1.0000 -0.0808901722
C   C30       1.0  0.81560  0.76750  0.50000  1.0000 -0.0808901722
C   C31       1.0  0.31560  0.26750  0.50000  1.0000 -0.0808901722
C   C32       1.0  0.31560  0.76750  0.00000  1.0000 -0.0808901722
C   C33       1.0  0.00000  0.18440  0.26750  1.0000 -0.0808901722
C   C34       1.0  0.00000  0.68440  0.76750  1.0000 -0.0808901722
C   C35       1.0  0.50000  0.18440  0.76750  1.0000 -0.0808901722
C   C36       1.0  0.50000  0.68440  0.26750  1.0000 -0.0808901722
C   C37       1.0  0.00000  0.18440  0.73250  1.0000 -0.0808901722
C   C38       1.0  0.00000  0.68440  0.23250  1.0000 -0.0808901722
C   C39       1.0  0.50000  0.18440  0.23250  1.0000 -0.0808901722
C   C40       1.0  0.50000  0.68440  0.73250  1.0000 -0.0808901722
C   C41       1.0  0.00000  0.81560  0.73250  1.0000 -0.0808901722
C   C42       1.0  0.00000  0.31560  0.23250  1.0000 -0.0808901722
C   C43       1.0  0.50000  0.81560  0.23250  1.0000 -0.0808901722
C   C44       1.0  0.50000  0.31560  0.73250  1.0000 -0.0808901722
C   C45       1.0  0.00000  0.81560  0.26750  1.0000 -0.0808901722
C   C46       1.0  0.00000  0.31560  0.76750  1.0000 -0.0808901722
C   C47       1.0  0.50000  0.81560  0.76750  1.0000 -0.0808901722
C   C48       1.0  0.50000  0.31560  0.26750  1.0000 -0.0808901722
C   C49       1.0  0.00000  0.26750  0.81560  1.0000 -0.0808901722
C   C50       1.0  0.00000  0.76750  0.31560  1.0000 -0.0808901722
C   C51       1.0  0.50000  0.26750  0.31560  1.0000 -0.0808901722
C   C52       1.0  0.50000  0.76750  0.81560  1.0000 -0.0808901722
C   C53       1.0  0.00000  0.73250  0.81560  1.0000 -0.0808901722
C   C54       1.0  0.00000  0.23250  0.31560  1.0000 -0.0808901722
C   C55       1.0  0.50000  0.73250  0.31560  1.0000 -0.0808901722
C   C56       1.0  0.50000  0.23250  0.81560  1.0000 -0.0808901722
C   C57       1.0  0.00000  0.73250  0.18440  1.0000 -0.0808901722
C   C58       1.0  0.00000  0.23250  0.68440  1.0000 -0.0808901722
C   C59       1.0  0.50000  0.73250  0.68440  1.0000 -0.0808901722
C   C60       1.0  0.50000  0.23250  0.18440  1.0000 -0.0808901722
C   C61       1.0  0.00000  0.26750  0.18440  1.0000 -0.0808901722
C   C62       1.0  0.00000  0.76750  0.68440  1.0000 -0.0808901722
C   C63       1.0  0.50000  0.26750  0.68440  1.0000 -0.0808901722
C   C64       1.0  0.50000  0.76750  0.18440  1.0000 -0.0808901722
C   C65       1.0  0.26750  0.18440  0.00000  1.0000 -0.0808901722
C   C66       1.0  0.26750  0.68440  0.50000  1.0000 -0.0808901722
C   C67       1.0  0.76750  0.18440  0.50000  1.0000 -0.0808901722
C   C68       1.0  0.76750  0.68440  0.00000  1.0000 -0.0808901722
C   C69       1.0  0.73250  0.18440  0.00000  1.0000 -0.0808901722
C   C70       1.0  0.73250  0.68440  0.50000  1.0000 -0.0808901722
C   C71       1.0  0.23250  0.18440  0.50000  1.0000 -0.0808901722
C   C72       1.0  0.23250  0.68440  0.00000  1.0000 -0.0808901722
C   C73       1.0  0.73250  0.81560  0.00000  1.0000 -0.0808901722
C   C74       1.0  0.73250  0.31560  0.50000  1.0000 -0.0808901722
C   C75       1.0  0.23250  0.81560  0.50000  1.0000 -0.0808901722
C   C76       1.0  0.23250  0.31560  0.00000  1.0000 -0.0808901722
C   C77       1.0  0.26750  0.81560  0.00000  1.0000 -0.0808901722
C   C78       1.0  0.26750  0.31560  0.50000  1.0000 -0.0808901722
C   C79       1.0  0.76750  0.81560  0.50000  1.0000 -0.0808901722
C   C80       1.0  0.76750  0.31560  0.00000  1.0000 -0.0808901722
C   C81       1.0  0.18440  0.00000  0.73250  1.0000 -0.0808901722
C   C82       1.0  0.18440  0.50000  0.23250  1.0000 -0.0808901722
C   C83       1.0  0.68440  0.00000  0.23250  1.0000 -0.0808901722
C   C84       1.0  0.68440  0.50000  0.73250  1.0000 -0.0808901722
C   C85       1.0  0.18440  0.00000  0.26750  1.0000 -0.0808901722
C   C86       1.0  0.18440  0.50000  0.76750  1.0000 -0.0808901722
C   C87       1.0  0.68440  0.00000  0.76750  1.0000 -0.0808901722
C   C88       1.0  0.68440  0.50000  0.26750  1.0000 -0.0808901722
C   C89       1.0  0.81560  0.00000  0.26750  1.0000 -0.0808901722
C   C90       1.0  0.81560  0.50000  0.76750  1.0000 -0.0808901722
C   C91       1.0  0.31560  0.00000  0.76750  1.0000 -0.0808901722
C   C92       1.0  0.31560  0.50000  0.26750  1.0000 -0.0808901722
C   C93       1.0  0.81560  0.00000  0.73250  1.0000 -0.0808901722
C   C94       1.0  0.81560  0.50000  0.23250  1.0000 -0.0808901722
C   C95       1.0  0.31560  0.00000  0.23250  1.0000 -0.0808901722
C   C96       1.0  0.31560  0.50000  0.73250  1.0000 -0.0808901722
C   C97       1.0  0.15360  0.00000  0.84640  1.0000 0.6270323508
C   C98       1.0  0.15360  0.50000  0.34640  1.0000 0.6270323508
C   C99       1.0  0.65360  0.00000  0.34640  1.0000 0.6244425637
C   C100      1.0  0.65360  0.50000  0.84640  1.0000 0.6270323508
C   C101      1.0  0.84640  0.00000  0.84640  1.0000 0.6270323508
C   C102      1.0  0.84640  0.50000  0.34640  1.0000 0.6270323508
C   C103      1.0  0.34640  0.00000  0.34640  1.0000 0.6244425637
C   C104      1.0  0.34640  0.50000  0.84640  1.0000 0.6270323508
C   C105      1.0  0.84640  0.00000  0.15360  1.0000 0.6244425637
C   C106      1.0  0.84640  0.50000  0.65360  1.0000 0.6270323508
C   C107      1.0  0.34640  0.00000  0.65360  1.0000 0.6270323508
C   C108      1.0  0.34640  0.50000  0.15360  1.0000 0.6270323508
C   C109      1.0  0.15360  0.00000  0.15360  1.0000 0.6244425637
C   C110      1.0  0.15360  0.50000  0.65360  1.0000 0.6270323508
C   C111      1.0  0.65360  0.00000  0.65360  1.0000 0.6270323508
C   C112      1.0  0.65360  0.50000  0.15360  1.0000 0.6270323508
C   C113      1.0  0.84640  0.15360  0.00000  1.0000 0.6270323508
C   C114      1.0  0.84640  0.65360  0.50000  1.0000 0.6270323508
C   C115      1.0  0.34640  0.15360  0.50000  1.0000 0.6270323508
C   C116      1.0  0.34640  0.65360  0.00000  1.0000 0.6270323508
C   C117      1.0  0.84640  0.84640  0.00000  1.0000 0.6270323508
C   C118      1.0  0.84640  0.34640  0.50000  1.0000 0.6244425637
C   C119      1.0  0.34640  0.84640  0.50000  1.0000 0.6270323508
C   C120      1.0  0.34640  0.34640  0.00000  1.0000 0.6270323508
C   C121      1.0  0.15360  0.84640  0.00000  1.0000 0.6270323508
C   C122      1.0  0.15360  0.34640  0.50000  1.0000 0.6244425637
C   C123      1.0  0.65360  0.84640  0.50000  1.0000 0.6270323508
C   C124      1.0  0.65360  0.34640  0.00000  1.0000 0.6270323508
C   C125      1.0  0.15360  0.15360  0.00000  1.0000 0.6270323508
C   C126      1.0  0.15360  0.65360  0.50000  1.0000 0.6270323508
C   C127      1.0  0.65360  0.15360  0.50000  1.0000 0.6270323508
C   C128      1.0  0.65360  0.65360  0.00000  1.0000 0.6270323508
C   C129      1.0  0.00000  0.84640  0.15360  1.0000 0.6244425637
C   C130      1.0  0.00000  0.34640  0.65360  1.0000 0.6244425637
C   C131      1.0  0.50000  0.84640  0.65360  1.0000 0.6270323508
C   C132      1.0  0.50000  0.34640  0.15360  1.0000 0.6270323508
C   C133      1.0  0.00000  0.84640  0.84640  1.0000 0.6270323508
C   C134      1.0  0.00000  0.34640  0.34640  1.0000 0.6244425637
C   C135      1.0  0.50000  0.84640  0.34640  1.0000 0.6244425637
C   C136      1.0  0.50000  0.34640  0.84640  1.0000 0.6270323508
C   C137      1.0  0.00000  0.15360  0.84640  1.0000 0.6270323508
C   C138      1.0  0.00000  0.65360  0.34640  1.0000 0.6270323508
C   C139      1.0  0.50000  0.15360  0.34640  1.0000 0.6244425637
C   C140      1.0  0.50000  0.65360  0.84640  1.0000 0.6270323508
C   C141      1.0  0.00000  0.15360  0.15360  1.0000 0.6244425637
C   C142      1.0  0.00000  0.65360  0.65360  1.0000 0.6270323508
C   C143      1.0  0.50000  0.15360  0.65360  1.0000 0.6270323508
C   C144      1.0  0.50000  0.65360  0.15360  1.0000 0.6270323508
C   C145      1.0  0.20500  0.00000  0.20500  1.0000 -0.0186005466
C   C146      1.0  0.20500  0.50000  0.70500  1.0000 -0.0123070953
C   C147      1.0  0.70500  0.00000  0.70500  1.0000 -0.0123070953
C   C148      1.0  0.70500  0.50000  0.20500  1.0000 -0.0186005466
C   C149      1.0  0.79500  0.00000  0.20500  1.0000 -0.0186005466
C   C150      1.0  0.79500  0.50000  0.70500  1.0000 -0.0186005466
C   C151      1.0  0.29500  0.00000  0.70500  1.0000 -0.0123070953
C   C152      1.0  0.29500  0.50000  0.20500  1.0000 -0.0123070953
C   C153      1.0  0.79500  0.00000  0.79500  1.0000 -0.0123070953
C   C154      1.0  0.79500  0.50000  0.29500  1.0000 -0.0123070953
C   C155      1.0  0.29500  0.00000  0.29500  1.0000 -0.0186005466
C   C156      1.0  0.29500  0.50000  0.79500  1.0000 -0.0186005466
C   C157      1.0  0.20500  0.00000  0.79500  1.0000 -0.0123070953
C   C158      1.0  0.20500  0.50000  0.29500  1.0000 -0.0186005466
C   C159      1.0  0.70500  0.00000  0.29500  1.0000 -0.0186005466
C   C160      1.0  0.70500  0.50000  0.79500  1.0000 -0.0123070953
C   C161      1.0  0.20500  0.20500  0.00000  1.0000 -0.0186005466
C   C162      1.0  0.20500  0.70500  0.50000  1.0000 -0.0123070953
C   C163      1.0  0.70500  0.20500  0.50000  1.0000 -0.0123070953
C   C164      1.0  0.70500  0.70500  0.00000  1.0000 -0.0123070953
C   C165      1.0  0.20500  0.79500  0.00000  1.0000 -0.0123070953
C   C166      1.0  0.20500  0.29500  0.50000  1.0000 -0.0186005466
C   C167      1.0  0.70500  0.79500  0.50000  1.0000 -0.0186005466
C   C168      1.0  0.70500  0.29500  0.00000  1.0000 -0.0186005466
C   C169      1.0  0.79500  0.79500  0.00000  1.0000 -0.0186005466
C   C170      1.0  0.79500  0.29500  0.50000  1.0000 -0.0186005466
C   C171      1.0  0.29500  0.79500  0.50000  1.0000 -0.0123070953
C   C172      1.0  0.29500  0.29500  0.00000  1.0000 -0.0123070953
C   C173      1.0  0.79500  0.20500  0.00000  1.0000 -0.0123070953
C   C174      1.0  0.79500  0.70500  0.50000  1.0000 -0.0123070953
C   C175      1.0  0.29500  0.20500  0.50000  1.0000 -0.0186005466
C   C176      1.0  0.29500  0.70500  0.00000  1.0000 -0.0186005466
C   C177      1.0  0.00000  0.20500  0.20500  1.0000 -0.0186005466
C   C178      1.0  0.00000  0.70500  0.70500  1.0000 -0.0123070953
C   C179      1.0  0.50000  0.20500  0.70500  1.0000 -0.0123070953
C   C180      1.0  0.50000  0.70500  0.20500  1.0000 -0.0186005466
C   C181      1.0  0.00000  0.20500  0.79500  1.0000 -0.0123070953
C   C182      1.0  0.00000  0.70500  0.29500  1.0000 -0.0123070953
C   C183      1.0  0.50000  0.20500  0.29500  1.0000 -0.0186005466
C   C184      1.0  0.50000  0.70500  0.79500  1.0000 -0.0123070953
C   C185      1.0  0.00000  0.79500  0.79500  1.0000 -0.0123070953
C   C186      1.0  0.00000  0.29500  0.29500  1.0000 -0.0186005466
C   C187      1.0  0.50000  0.79500  0.29500  1.0000 -0.0186005466
C   C188      1.0  0.50000  0.29500  0.79500  1.0000 -0.0186005466
C   C189      1.0  0.00000  0.79500  0.20500  1.0000 -0.0186005466
C   C190      1.0  0.00000  0.29500  0.70500  1.0000 -0.0186005466
C   C191      1.0  0.50000  0.79500  0.70500  1.0000 -0.0123070953
C   C192      1.0  0.50000  0.29500  0.20500  1.0000 -0.0123070953
O   O1        1.0  0.17047  0.00000  0.09530  1.0000 -0.5867800949
O   O2        1.0  0.17047  0.50000  0.59530  1.0000 -0.6290226715
O   O3        1.0  0.67047  0.00000  0.59530  1.0000 -0.6200618633
O   O4        1.0  0.67047  0.50000  0.09530  1.0000 -0.5787397114
O   O5        1.0  0.82953  0.00000  0.09530  1.0000 -0.5867800949
O   O6        1.0  0.82953  0.50000  0.59530  1.0000 -0.5787397114
O   O7        1.0  0.32953  0.00000  0.59530  1.0000 -0.6200618633
O   O8        1.0  0.32953  0.50000  0.09530  1.0000 -0.6290226715
O   O9        1.0  0.82953  0.00000  0.90470  1.0000 -0.6200618633
O   O10       1.0  0.82953  0.50000  0.40470  1.0000 -0.6290226715
O   O11       1.0  0.32953  0.00000  0.40470  1.0000 -0.5867800949
O   O12       1.0  0.32953  0.50000  0.90470  1.0000 -0.5787397114
O   O13       1.0  0.17047  0.00000  0.90470  1.0000 -0.6200618633
O   O14       1.0  0.17047  0.50000  0.40470  1.0000 -0.5787397114
O   O15       1.0  0.67047  0.00000  0.40470  1.0000 -0.5867800949
O   O16       1.0  0.67047  0.50000  0.90470  1.0000 -0.6290226715
O   O17       1.0  0.09530  0.17047  0.00000  1.0000 -0.5787397114
O   O18       1.0  0.09530  0.67047  0.50000  1.0000 -0.6105012186
O   O19       1.0  0.59530  0.17047  0.50000  1.0000 -0.6290226715
O   O20       1.0  0.59530  0.67047  0.00000  1.0000 -0.6290226715
O   O21       1.0  0.09530  0.82953  0.00000  1.0000 -0.6290226715
O   O22       1.0  0.09530  0.32953  0.50000  1.0000 -0.5867800949
O   O23       1.0  0.59530  0.82953  0.50000  1.0000 -0.5787397114
O   O24       1.0  0.59530  0.32953  0.00000  1.0000 -0.5787397114
O   O25       1.0  0.90470  0.82953  0.00000  1.0000 -0.5787397114
O   O26       1.0  0.90470  0.32953  0.50000  1.0000 -0.5867800949
O   O27       1.0  0.40470  0.82953  0.50000  1.0000 -0.6290226715
O   O28       1.0  0.40470  0.32953  0.00000  1.0000 -0.6290226715
O   O29       1.0  0.90470  0.17047  0.00000  1.0000 -0.6290226715
O   O30       1.0  0.90470  0.67047  0.50000  1.0000 -0.6105012186
O   O31       1.0  0.40470  0.17047  0.50000  1.0000 -0.5787397114
O   O32       1.0  0.40470  0.67047  0.00000  1.0000 -0.5787397114
O   O33       1.0  0.00000  0.09530  0.17047  1.0000 -0.5867800949
O   O34       1.0  0.00000  0.59530  0.67047  1.0000 -0.6200618633
O   O35       1.0  0.50000  0.09530  0.67047  1.0000 -0.6105012186
O   O36       1.0  0.50000  0.59530  0.17047  1.0000 -0.5787397114
O   O37       1.0  0.00000  0.09530  0.82953  1.0000 -0.6105012186
O   O38       1.0  0.00000  0.59530  0.32953  1.0000 -0.6200618633
O   O39       1.0  0.50000  0.09530  0.32953  1.0000 -0.5867800949
O   O40       1.0  0.50000  0.59530  0.82953  1.0000 -0.6290226715
O   O41       1.0  0.00000  0.90470  0.82953  1.0000 -0.6105012186
O   O42       1.0  0.00000  0.40470  0.32953  1.0000 -0.5867800949
O   O43       1.0  0.50000  0.90470  0.32953  1.0000 -0.5867800949
O   O44       1.0  0.50000  0.40470  0.82953  1.0000 -0.5787397114
O   O45       1.0  0.00000  0.90470  0.17047  1.0000 -0.5867800949
O   O46       1.0  0.00000  0.40470  0.67047  1.0000 -0.5867800949
O   O47       1.0  0.50000  0.90470  0.67047  1.0000 -0.6105012186
O   O48       1.0  0.50000  0.40470  0.17047  1.0000 -0.6290226715
O   O49       1.0  0.00000  0.17047  0.90470  1.0000 -0.6200618633
O   O50       1.0  0.00000  0.67047  0.40470  1.0000 -0.6105012186
O   O51       1.0  0.50000  0.17047  0.40470  1.0000 -0.5867800949
O   O52       1.0  0.50000  0.67047  0.90470  1.0000 -0.6290226715
O   O53       1.0  0.00000  0.82953  0.90470  1.0000 -0.6200618633
O   O54       1.0  0.00000  0.32953  0.40470  1.0000 -0.5867800949
O   O55       1.0  0.50000  0.82953  0.40470  1.0000 -0.5867800949
O   O56       1.0  0.50000  0.32953  0.90470  1.0000 -0.5787397114
O   O57       1.0  0.00000  0.82953  0.09530  1.0000 -0.5867800949
O   O58       1.0  0.00000  0.32953  0.59530  1.0000 -0.5867800949
O   O59       1.0  0.50000  0.82953  0.59530  1.0000 -0.6200618633
O   O60       1.0  0.50000  0.32953  0.09530  1.0000 -0.6290226715
O   O61       1.0  0.00000  0.17047  0.09530  1.0000 -0.5867800949
O   O62       1.0  0.00000  0.67047  0.59530  1.0000 -0.6105012186
O   O63       1.0  0.50000  0.17047  0.59530  1.0000 -0.6200618633
O   O64       1.0  0.50000  0.67047  0.09530  1.0000 -0.5787397114
O   O65       1.0  0.17047  0.09530  0.00000  1.0000 -0.5787397114
O   O66       1.0  0.17047  0.59530  0.50000  1.0000 -0.6200618633
O   O67       1.0  0.67047  0.09530  0.50000  1.0000 -0.6290226715
O   O68       1.0  0.67047  0.59530  0.00000  1.0000 -0.6290226715
O   O69       1.0  0.82953  0.09530  0.00000  1.0000 -0.6290226715
O   O70       1.0  0.82953  0.59530  0.50000  1.0000 -0.6200618633
O   O71       1.0  0.32953  0.09530  0.50000  1.0000 -0.5787397114
O   O72       1.0  0.32953  0.59530  0.00000  1.0000 -0.5787397114
O   O73       1.0  0.82953  0.90470  0.00000  1.0000 -0.5787397114
O   O74       1.0  0.82953  0.40470  0.50000  1.0000 -0.5867800949
O   O75       1.0  0.32953  0.90470  0.50000  1.0000 -0.6290226715
O   O76       1.0  0.32953  0.40470  0.00000  1.0000 -0.6290226715
O   O77       1.0  0.17047  0.90470  0.00000  1.0000 -0.6290226715
O   O78       1.0  0.17047  0.40470  0.50000  1.0000 -0.5867800949
O   O79       1.0  0.67047  0.90470  0.50000  1.0000 -0.5787397114
O   O80       1.0  0.67047  0.40470  0.00000  1.0000 -0.5787397114
O   O81       1.0  0.09530  0.00000  0.82953  1.0000 -0.6105012186
O   O82       1.0  0.09530  0.50000  0.32953  1.0000 -0.5787397114
O   O83       1.0  0.59530  0.00000  0.32953  1.0000 -0.5867800949
O   O84       1.0  0.59530  0.50000  0.82953  1.0000 -0.6290226715
O   O85       1.0  0.09530  0.00000  0.17047  1.0000 -0.5867800949
O   O86       1.0  0.09530  0.50000  0.67047  1.0000 -0.6290226715
O   O87       1.0  0.59530  0.00000  0.67047  1.0000 -0.6105012186
O   O88       1.0  0.59530  0.50000  0.17047  1.0000 -0.5787397114
O   O89       1.0  0.90470  0.00000  0.17047  1.0000 -0.5867800949
O   O90       1.0  0.90470  0.50000  0.67047  1.0000 -0.5787397114
O   O91       1.0  0.40470  0.00000  0.67047  1.0000 -0.6105012186
O   O92       1.0  0.40470  0.50000  0.17047  1.0000 -0.6290226715
O   O93       1.0  0.90470  0.00000  0.82953  1.0000 -0.6105012186
O   O94       1.0  0.90470  0.50000  0.32953  1.0000 -0.6290226715
O   O95       1.0  0.40470  0.00000  0.32953  1.0000 -0.5867800949
O   O96       1.0  0.40470  0.50000  0.82953  1.0000 -0.5787397114
O   O97       1.0  0.05610  0.44390  0.44390  1.0000 -1.0270650524
O   O98       1.0  0.55610  0.94390  0.44390  1.0000 -1.0270650524
O   O99       1.0  0.55610  0.44390  0.94390  1.0000 -1.1353447773
O   O100      1.0  0.44390  0.05610  0.44390  1.0000 -1.0270650524
O   O101      1.0  0.44390  0.55610  0.94390  1.0000 -1.1353447773
O   O102      1.0  0.94390  0.94390  0.05610  1.0000 -1.0270650524
O   O103      1.0  0.94390  0.44390  0.55610  1.0000 -1.0270650524
O   O104      1.0  0.05610  0.05610  0.05610  1.0000 -1.0270650524
O   O105      1.0  0.55610  0.55610  0.05610  1.0000 -1.1353447773
O   O106      1.0  0.94390  0.05610  0.05610  1.0000 -1.1257593967
O   O107      1.0  0.94390  0.55610  0.55610  1.0000 -1.2144141533
O   O108      1.0  0.44390  0.05610  0.55610  1.0000 -1.2153732516
O   O109      1.0  0.44390  0.55610  0.05610  1.0000 -1.1353447773
O   O110      1.0  0.05610  0.94390  0.05610  1.0000 -1.1257593967
O   O111      1.0  0.05610  0.44390  0.55610  1.0000 -1.1257593967
O   O112      1.0  0.55610  0.94390  0.55610  1.0000 -1.2144141533
O   O113      1.0  0.55610  0.44390  0.05610  1.0000 -1.1353447773
O   O114      1.0  0.94390  0.94390  0.94390  1.0000 -1.2153732516
O   O115      1.0  0.94390  0.44390  0.44390  1.0000 -1.1257593967
O   O116      1.0  0.44390  0.94390  0.44390  1.0000 -1.1257593967
O   O117      1.0  0.44390  0.44390  0.94390  1.0000 -1.1353447773
O   O118      1.0  0.05610  0.05610  0.94390  1.0000 -1.2153732516
O   O119      1.0  0.05610  0.55610  0.44390  1.0000 -1.2153732516
O   O120      1.0  0.55610  0.05610  0.44390  1.0000 -1.1257593967
