# generated by PACMAN-DDEC6 charge (https://github.com/sxm13/PACMAN/)
data_structure
_chemical_formula_structural       Zn4H44C44N20O12
_chemical_formula_sum              "Zn4 H44 C44 N20 O12"
_cell_length_a       9.62378
_cell_length_b       9.76864
_cell_length_c       14.4371
_cell_angle_alpha    99.2888
_cell_angle_beta     89.9995
_cell_angle_gamma    89.9999

_symmetry_space_group_name_H-M    "P 1"
_symmetry_Int_Tables_number       1

loop_
  _symmetry_equiv_pos_as_xyz
  'x, y, z'

loop_
  _atom_site_type_symbol
  _atom_site_label
  _atom_site_symmetry_multiplicity
  _atom_site_fract_x
  _atom_site_fract_y
  _atom_site_fract_z
  _atom_site_occupancy
  _atom_site_charge
_atom_site_charge 0.683054
Zn  Zn1       1.0  0.07212  0.63455  0.08801  1.0000 0.687356 0.683288
Zn  Zn2       1.0  0.57212  0.86546  0.91198  1.0000 0.687327 0.683115
Zn  Zn3       1.0  0.92788  0.36546  0.91198  1.0000 0.687354 0.682992
Zn  Zn4       1.0  0.42788  0.13455  0.08802  1.0000 0.687383 0.1113
H   H1        1.0  0.94285  0.95277  0.30808  1.0000 0.116444 0.111276
H   H2        1.0  0.44285  0.54723  0.69193  1.0000 0.116456 0.111251
H   H3        1.0  0.05715  0.04723  0.69192  1.0000 0.116495 0.111093
H   H4        1.0  0.55715  0.45276  0.30808  1.0000 0.116434 0.111794
H   H5        1.0  0.21250  0.69323  0.44218  1.0000 0.109965 0.111884
H   H6        1.0  0.71251  0.80676  0.55781  1.0000 0.109965 0.112053
H   H7        1.0  0.78749  0.30677  0.55782  1.0000 0.109976 0.111977
H   H8        1.0  0.28749  0.19323  0.44219  1.0000 0.109954 0.128168
H   H9        1.0  0.84248  0.86671  0.05777  1.0000 0.130828 0.128653
H   H10       1.0  0.34248  0.63331  0.94222  1.0000 0.130896 0.128822
H   H11       1.0  0.15752  0.13330  0.94222  1.0000 0.13086 0.128391
H   H12       1.0  0.65753  0.36670  0.05778  1.0000 0.130953 0.113635
H   H13       1.0  0.68227  0.55588  0.84752  1.0000 0.117469 0.113665
H   H14       1.0  0.18228  0.94412  0.15249  1.0000 0.117444 0.113886
H   H15       1.0  0.31772  0.44412  0.15248  1.0000 0.117443 0.113545
H   H16       1.0  0.81772  0.05589  0.84752  1.0000 0.117438 0.100785
H   H17       1.0  0.17191  0.84195  0.59753  1.0000 0.102318 0.100556
H   H18       1.0  0.67191  0.65803  0.40246  1.0000 0.102266 0.100413
H   H19       1.0  0.82809  0.15804  0.40247  1.0000 0.102276 0.100726
H   H20       1.0  0.32809  0.34196  0.59754  1.0000 0.102365 0.085975
H   H21       1.0  0.07539  0.44292  0.28840  1.0000 0.083888 0.086263
H   H22       1.0  0.57539  0.05708  0.71160  1.0000 0.083803 0.086587
H   H23       1.0  0.92460  0.55709  0.71160  1.0000 0.083809 0.086335
H   H24       1.0  0.42461  0.94292  0.28840  1.0000 0.083776 0.068114
H   H25       1.0  0.03489  0.32567  0.36740  1.0000 0.063445 0.068134
H   H26       1.0  0.53489  0.17433  0.63260  1.0000 0.063423 0.068139
H   H27       1.0  0.96511  0.67434  0.63260  1.0000 0.063444 0.068141
H   H28       1.0  0.46512  0.82567  0.36740  1.0000 0.063405 0.072377
H   H29       1.0  0.80849  0.42717  0.36326  1.0000 0.075306 0.072308
H   H30       1.0  0.30849  0.07283  0.63674  1.0000 0.075346 0.072256
H   H31       1.0  0.19151  0.57283  0.63674  1.0000 0.075366 0.072413
H   H32       1.0  0.69152  0.92716  0.36326  1.0000 0.075381 0.072978
H   H33       1.0  0.83261  0.46794  0.24819  1.0000 0.073345 0.072861
H   H34       1.0  0.33260  0.03206  0.75182  1.0000 0.073358 0.072806
H   H35       1.0  0.16739  0.53206  0.75182  1.0000 0.073322 0.073004
H   H36       1.0  0.66740  0.96793  0.24819  1.0000 0.073408 0.281011
H   H37       1.0  0.69371  0.24399  0.23279  1.0000 0.275698 0.281096
H   H38       1.0  0.19370  0.25601  0.76721  1.0000 0.275717 0.281086
H   H39       1.0  0.30629  0.75601  0.76721  1.0000 0.275718 0.280965
H   H40       1.0  0.80630  0.74398  0.23278  1.0000 0.275675 0.280694
H   H41       1.0  0.11142  0.18098  0.22152  1.0000 0.278617 0.280368
H   H42       1.0  0.61142  0.31902  0.77848  1.0000 0.278657 0.280332
H   H43       1.0  0.88857  0.81902  0.77848  1.0000 0.278581 0.280428
H   H44       1.0  0.38858  0.68098  0.22152  1.0000 0.278651 0.560887
C   C1        1.0  0.09991  0.72187  0.27538  1.0000 0.56533 0.561078
C   C2        1.0  0.59991  0.77813  0.72462  1.0000 0.565139 0.561111
C   C3        1.0  0.90009  0.27813  0.72462  1.0000 0.56511 0.560683
C   C4        1.0  0.40009  0.22187  0.27538  1.0000 0.565109 -0.038001
C   C5        1.0  0.07638  0.81345  0.36706  1.0000 -0.034941 -0.038035
C   C6        1.0  0.57638  0.68655  0.63294  1.0000 -0.034904 -0.037787
C   C7        1.0  0.92363  0.18655  0.63294  1.0000 -0.034789 -0.038527
C   C8        1.0  0.42362  0.31345  0.36706  1.0000 -0.034811 -0.134592
C   C9        1.0  0.99098  0.92866  0.37193  1.0000 -0.132084 -0.134881
C   C10       1.0  0.49098  0.57134  0.62807  1.0000 -0.132061 -0.135103
C   C11       1.0  0.00902  0.07134  0.62807  1.0000 -0.132315 -0.13485
C   C12       1.0  0.50902  0.42865  0.37193  1.0000 -0.132105 0.073305
C   C13       1.0  0.96711  0.01639  0.45848  1.0000 0.071075 0.073616
C   C14       1.0  0.46711  0.48360  0.54152  1.0000 0.070907 0.073922
C   C15       1.0  0.03290  0.98360  0.54152  1.0000 0.071081 0.07399
C   C16       1.0  0.53289  0.51639  0.45848  1.0000 0.071084 -0.095393
C   C17       1.0  0.14387  0.78312  0.44883  1.0000 -0.100708 -0.096029
C   C18       1.0  0.64388  0.71687  0.55116  1.0000 -0.100683 -0.09646
C   C19       1.0  0.85613  0.21688  0.55116  1.0000 -0.100662 -0.096042
C   C20       1.0  0.35612  0.28312  0.44884  1.0000 -0.100586 0.16504
C   C21       1.0  0.82673  0.76911  0.01028  1.0000 0.171014 0.164868
C   C22       1.0  0.32673  0.73090  0.98971  1.0000 0.170936 0.164795
C   C23       1.0  0.17327  0.23090  0.98972  1.0000 0.170969 0.164906
C   C24       1.0  0.67327  0.26910  0.01029  1.0000 0.170935 0.172345
C   C25       1.0  0.74551  0.61131  0.90346  1.0000 0.169377 0.172136
C   C26       1.0  0.24552  0.88870  0.09654  1.0000 0.169514 0.172054
C   C27       1.0  0.25448  0.38870  0.09654  1.0000 0.169533 0.172292
C   C28       1.0  0.75448  0.11131  0.90346  1.0000 0.169449 -0.130464
C   C29       1.0  0.12166  0.86572  0.53419  1.0000 -0.133944 -0.130355
C   C30       1.0  0.62165  0.63427  0.46580  1.0000 -0.133939 -0.129649
C   C31       1.0  0.87835  0.13428  0.46581  1.0000 -0.133983 -0.130255
C   C32       1.0  0.37835  0.36572  0.53420  1.0000 -0.134083 0.614515
C   C33       1.0  0.89666  0.17207  0.20462  1.0000 0.610831 0.614262
C   C34       1.0  0.39665  0.32793  0.79537  1.0000 0.610893 0.614178
C   C35       1.0  0.10334  0.82793  0.79537  1.0000 0.610774 0.614196
C   C36       1.0  0.60334  0.67208  0.20463  1.0000 0.610812 -0.016118
C   C37       1.0  0.00843  0.35607  0.29915  1.0000 -0.023218 -0.016457
C   C38       1.0  0.50843  0.14392  0.70085  1.0000 -0.023008 -0.016454
C   C39       1.0  0.99157  0.64393  0.70085  1.0000 -0.023097 -0.015959
C   C40       1.0  0.49158  0.85607  0.29915  1.0000 -0.022977 -0.020417
C   C41       1.0  0.85275  0.38970  0.29374  1.0000 -0.022678 -0.020164
C   C42       1.0  0.35275  0.11030  0.70626  1.0000 -0.022804 -0.019927
C   C43       1.0  0.14725  0.61030  0.70626  1.0000 -0.022765 -0.020208
C   C44       1.0  0.64726  0.88970  0.29374  1.0000 -0.022937 -0.184289
N   N1        1.0  0.90776  0.65820  0.00768  1.0000 -0.18696 -0.183706
N   N2        1.0  0.40776  0.84180  0.99231  1.0000 -0.186961 -0.183332
N   N3        1.0  0.09224  0.34180  0.99231  1.0000 -0.186935 -0.183401
N   N4        1.0  0.59224  0.15820  0.00769  1.0000 -0.187094 -0.190516
N   N5        1.0  0.85629  0.55766  0.93915  1.0000 -0.19186 -0.190752
N   N6        1.0  0.35630  0.94234  0.06085  1.0000 -0.191947 -0.190483
N   N7        1.0  0.14370  0.44234  0.06085  1.0000 -0.191954 -0.190729
N   N8        1.0  0.64370  0.05767  0.93915  1.0000 -0.191793 -0.314596
N   N9        1.0  0.72381  0.74302  0.94596  1.0000 -0.314853 -0.314673
N   N10       1.0  0.22381  0.75698  0.05404  1.0000 -0.314906 -0.314517
N   N11       1.0  0.27619  0.25698  0.05404  1.0000 -0.31492 -0.314254
N   N12       1.0  0.77619  0.24302  0.94597  1.0000 -0.314907 -0.441057
N   N13       1.0  0.79568  0.25476  0.25279  1.0000 -0.434698 -0.44093
N   N14       1.0  0.29567  0.24524  0.74721  1.0000 -0.43471 -0.441111
N   N15       1.0  0.20432  0.74524  0.74722  1.0000 -0.434658 -0.44109
N   N16       1.0  0.70433  0.75475  0.25278  1.0000 -0.434528 -0.439051
N   N17       1.0  0.02263  0.23840  0.22309  1.0000 -0.435151 -0.439038
N   N18       1.0  0.52262  0.26160  0.77692  1.0000 -0.435245 -0.439361
N   N19       1.0  0.97737  0.76160  0.77692  1.0000 -0.435065 -0.439282
N   N20       1.0  0.47737  0.73840  0.22309  1.0000 -0.435154 -0.539553
O   O1        1.0  0.00675  0.72925  0.21056  1.0000 -0.541085 -0.540202
O   O2        1.0  0.50676  0.77076  0.78943  1.0000 -0.540993 -0.539047
O   O3        1.0  0.99325  0.27076  0.78943  1.0000 -0.540981 -0.538789
O   O4        1.0  0.49324  0.22924  0.21057  1.0000 -0.541022 -0.557544
O   O5        1.0  0.20383  0.64357  0.26234  1.0000 -0.555843 -0.55758
O   O6        1.0  0.70383  0.85642  0.73765  1.0000 -0.555704 -0.556444
O   O7        1.0  0.79617  0.35642  0.73765  1.0000 -0.555736 -0.556492
O   O8        1.0  0.29617  0.14357  0.26235  1.0000 -0.555764 -0.588894
O   O9        1.0  0.87805  0.05723  0.15429  1.0000 -0.594224 -0.589193
O   O10       1.0  0.37804  0.44278  0.84571  1.0000 -0.594291 -0.589488
O   O11       1.0  0.12195  0.94278  0.84571  1.0000 -0.594273 -0.589222
O   O12       1.0  0.62195  0.55721  0.15429  1.0000 -0.594381
