# generated by PACMAN-DDEC6 charge (https://github.com/sxm13/PACMAN/)
data_structure
_chemical_formula_structural       Zn8H88C88N40O24
_chemical_formula_sum              "Zn8 H88 C88 N40 O24"
_cell_length_a       9.75128
_cell_length_b       10.0488
_cell_length_c       26.69
_cell_angle_alpha    89.9999
_cell_angle_beta     90
_cell_angle_gamma    89.9999

_symmetry_space_group_name_H-M    "P 1"
_symmetry_Int_Tables_number       1

loop_
  _symmetry_equiv_pos_as_xyz
  'x, y, z'

loop_
  _atom_site_type_symbol
  _atom_site_label
  _atom_site_symmetry_multiplicity
  _atom_site_fract_x
  _atom_site_fract_y
  _atom_site_fract_z
  _atom_site_occupancy
  _atom_site_charge
_atom_site_charge 0.68108
Zn  Zn1       1.0  0.08411  0.88388  0.54361  1.0000 0.686393 0.680974
Zn  Zn2       1.0  0.58411  0.61612  0.45639  1.0000 0.686451 0.680897
Zn  Zn3       1.0  0.91589  0.11612  0.04361  1.0000 0.686472 0.680814
Zn  Zn4       1.0  0.41589  0.38388  0.95639  1.0000 0.686496 0.680844
Zn  Zn5       1.0  0.91589  0.11612  0.45639  1.0000 0.686395 0.680836
Zn  Zn6       1.0  0.41589  0.38388  0.54361  1.0000 0.686387 0.681286
Zn  Zn7       1.0  0.08411  0.88388  0.95639  1.0000 0.686466 0.681128
Zn  Zn8       1.0  0.58411  0.61612  0.04361  1.0000 0.686434 0.114055
H   H1        1.0  0.98651  0.63949  0.65661  1.0000 0.111746 0.114247
H   H2        1.0  0.48651  0.86051  0.34339  1.0000 0.111674 0.114469
H   H3        1.0  0.01349  0.36051  0.15661  1.0000 0.111699 0.114232
H   H4        1.0  0.51349  0.13949  0.84339  1.0000 0.11175 0.11426
H   H5        1.0  0.01349  0.36051  0.34339  1.0000 0.11176 0.114145
H   H6        1.0  0.51349  0.13949  0.65661  1.0000 0.111717 0.114164
H   H7        1.0  0.98651  0.63949  0.84339  1.0000 0.111746 0.114153
H   H8        1.0  0.48651  0.86051  0.15661  1.0000 0.111732 0.092556
H   H9        1.0  0.87653  0.45719  0.70307  1.0000 0.095586 0.092653
H   H10       1.0  0.37653  0.04281  0.29693  1.0000 0.095606 0.092745
H   H11       1.0  0.12347  0.54281  0.20307  1.0000 0.095563 0.092365
H   H12       1.0  0.62347  0.95719  0.79693  1.0000 0.095636 0.092543
H   H13       1.0  0.12347  0.54281  0.29693  1.0000 0.095572 0.092603
H   H14       1.0  0.62347  0.95719  0.70308  1.0000 0.095561 0.092535
H   H15       1.0  0.87654  0.45719  0.79693  1.0000 0.095611 0.092623
H   H16       1.0  0.37653  0.04281  0.20307  1.0000 0.095604 0.10924
H   H17       1.0  0.24243  0.02897  0.70343  1.0000 0.104115 0.109478
H   H18       1.0  0.74243  0.47103  0.29657  1.0000 0.104065 0.109674
H   H19       1.0  0.75757  0.97102  0.20343  1.0000 0.104092 0.109218
H   H20       1.0  0.25757  0.52897  0.79657  1.0000 0.104064 0.109634
H   H21       1.0  0.75758  0.97102  0.29657  1.0000 0.104078 0.109295
H   H22       1.0  0.25757  0.52897  0.70343  1.0000 0.104096 0.10931
H   H23       1.0  0.24243  0.02897  0.79657  1.0000 0.10412 0.10943
H   H24       1.0  0.74243  0.47103  0.20343  1.0000 0.104093 0.126009
H   H25       1.0  0.35390  0.84758  0.46855  1.0000 0.128852 0.125965
H   H26       1.0  0.85390  0.65242  0.53145  1.0000 0.128838 0.126304
H   H27       1.0  0.64609  0.15242  0.96856  1.0000 0.128808 0.126159
H   H28       1.0  0.14609  0.34758  0.03144  1.0000 0.128805 0.126054
H   H29       1.0  0.64610  0.15242  0.53144  1.0000 0.12886 0.126095
H   H30       1.0  0.14610  0.34758  0.46855  1.0000 0.128873 0.125963
H   H31       1.0  0.35390  0.84758  0.03145  1.0000 0.128815 0.125916
H   H32       1.0  0.85391  0.65242  0.96856  1.0000 0.1288 0.116364
H   H33       1.0  0.16283  0.58179  0.56897  1.0000 0.116392 0.116294
H   H34       1.0  0.66283  0.91822  0.43103  1.0000 0.116411 0.116463
H   H35       1.0  0.83717  0.41821  0.06897  1.0000 0.11638 0.116365
H   H36       1.0  0.33717  0.08179  0.93103  1.0000 0.116369 0.116236
H   H37       1.0  0.83717  0.41821  0.43103  1.0000 0.116364 0.116398
H   H38       1.0  0.33717  0.08179  0.56897  1.0000 0.116376 0.116344
H   H39       1.0  0.16283  0.58179  0.93103  1.0000 0.11637 0.11651
H   H40       1.0  0.66283  0.91821  0.06897  1.0000 0.116376 0.077693
H   H41       1.0  0.94741  0.87764  0.36245  1.0000 0.074346 0.0777
H   H42       1.0  0.44741  0.62236  0.63755  1.0000 0.074327 0.077738
H   H43       1.0  0.05259  0.12235  0.86245  1.0000 0.074308 0.077615
H   H44       1.0  0.55260  0.37764  0.13755  1.0000 0.074283 0.077785
H   H45       1.0  0.05259  0.12236  0.63755  1.0000 0.074318 0.077684
H   H46       1.0  0.55259  0.37765  0.36245  1.0000 0.074319 0.077813
H   H47       1.0  0.94741  0.87764  0.13755  1.0000 0.074299 0.077835
H   H48       1.0  0.44741  0.62236  0.86245  1.0000 0.07432 0.065444
H   H49       1.0  0.96582  0.74657  0.31785  1.0000 0.062495 0.065478
H   H50       1.0  0.46582  0.75343  0.68215  1.0000 0.062489 0.065785
H   H51       1.0  0.03418  0.25343  0.81785  1.0000 0.062499 0.065694
H   H52       1.0  0.53418  0.24657  0.18215  1.0000 0.062493 0.065787
H   H53       1.0  0.03418  0.25343  0.68215  1.0000 0.06248 0.06579
H   H54       1.0  0.53418  0.24657  0.31785  1.0000 0.062467 0.065544
H   H55       1.0  0.96582  0.74657  0.18215  1.0000 0.062494 0.065653
H   H56       1.0  0.46582  0.75343  0.81785  1.0000 0.062527 0.07705
H   H57       1.0  0.19745  0.83091  0.31399  1.0000 0.076935 0.077068
H   H58       1.0  0.69745  0.66909  0.68601  1.0000 0.076918 0.076974
H   H59       1.0  0.80255  0.16909  0.81399  1.0000 0.076936 0.076905
H   H60       1.0  0.30255  0.33091  0.18601  1.0000 0.076904 0.07695
H   H61       1.0  0.80255  0.16909  0.68601  1.0000 0.07691 0.076921
H   H62       1.0  0.30255  0.33091  0.31399  1.0000 0.076893 0.076956
H   H63       1.0  0.19745  0.83091  0.18601  1.0000 0.076915 0.077091
H   H64       1.0  0.69745  0.66909  0.81399  1.0000 0.076908 0.072505
H   H65       1.0  0.19269  0.89138  0.37682  1.0000 0.076856 0.072351
H   H66       1.0  0.69269  0.60862  0.62318  1.0000 0.076865 0.072135
H   H67       1.0  0.80731  0.10862  0.87683  1.0000 0.076863 0.07208
H   H68       1.0  0.30731  0.39138  0.12317  1.0000 0.076853 0.072189
H   H69       1.0  0.80731  0.10862  0.62318  1.0000 0.076799 0.072171
H   H70       1.0  0.30731  0.39138  0.37683  1.0000 0.07687 0.072404
H   H71       1.0  0.19269  0.89138  0.12317  1.0000 0.07687 0.072342
H   H72       1.0  0.69269  0.60862  0.87682  1.0000 0.07688 0.281896
H   H73       1.0  0.90212  0.63662  0.39556  1.0000 0.281769 0.281719
H   H74       1.0  0.40212  0.86338  0.60444  1.0000 0.281784 0.281998
H   H75       1.0  0.09788  0.36338  0.89556  1.0000 0.281774 0.281727
H   H76       1.0  0.59788  0.13662  0.10444  1.0000 0.281749 0.281934
H   H77       1.0  0.09788  0.36338  0.60444  1.0000 0.281796 0.281772
H   H78       1.0  0.59788  0.13662  0.39556  1.0000 0.281803 0.281637
H   H79       1.0  0.90212  0.63662  0.10444  1.0000 0.281776 0.281719
H   H80       1.0  0.40212  0.86338  0.89557  1.0000 0.281747 0.285789
H   H81       1.0  0.31371  0.66765  0.37729  1.0000 0.279685 0.2858
H   H82       1.0  0.81371  0.83235  0.62271  1.0000 0.27969 0.285934
H   H83       1.0  0.68629  0.33234  0.87729  1.0000 0.279682 0.285944
H   H84       1.0  0.18629  0.16766  0.12271  1.0000 0.279687 0.285906
H   H85       1.0  0.68629  0.33235  0.62271  1.0000 0.279674 0.286058
H   H86       1.0  0.18630  0.16765  0.37729  1.0000 0.279711 0.285858
H   H87       1.0  0.31371  0.66765  0.12271  1.0000 0.279676 0.285943
H   H88       1.0  0.81371  0.83234  0.87729  1.0000 0.279635 0.563767
C   C1        1.0  0.12371  0.86961  0.64125  1.0000 0.565552 0.563945
C   C2        1.0  0.62371  0.63039  0.35874  1.0000 0.565638 0.563715
C   C3        1.0  0.87629  0.13039  0.14126  1.0000 0.56564 0.563857
C   C4        1.0  0.37629  0.36961  0.85875  1.0000 0.565463 0.56385
C   C5        1.0  0.87629  0.13038  0.35875  1.0000 0.56573 0.563736
C   C6        1.0  0.37629  0.36961  0.64125  1.0000 0.565594 0.564034
C   C7        1.0  0.12371  0.86961  0.85874  1.0000 0.565486 0.563855
C   C8        1.0  0.62372  0.63039  0.14125  1.0000 0.565625 -0.07966
C   C9        1.0  0.11851  0.85433  0.69699  1.0000 -0.074487 -0.080381
C   C10       1.0  0.61851  0.64567  0.30301  1.0000 -0.074641 -0.080328
C   C11       1.0  0.88149  0.14567  0.19699  1.0000 -0.07454 -0.080138
C   C12       1.0  0.38149  0.35433  0.80301  1.0000 -0.074466 -0.080262
C   C13       1.0  0.88149  0.14567  0.30301  1.0000 -0.074581 -0.07992
C   C14       1.0  0.38149  0.35433  0.69699  1.0000 -0.074559 -0.080196
C   C15       1.0  0.11851  0.85433  0.80301  1.0000 -0.074536 -0.080003
C   C16       1.0  0.61851  0.64567  0.19699  1.0000 -0.074501 0.052187
C   C17       1.0  0.05011  0.74844  0.72288  1.0000 0.05405 0.052212
C   C18       1.0  0.55011  0.75156  0.27712  1.0000 0.054089 0.051864
C   C19       1.0  0.94990  0.25155  0.22288  1.0000 0.054091 0.052372
C   C20       1.0  0.44989  0.24845  0.77712  1.0000 0.054048 0.052015
C   C21       1.0  0.94989  0.25156  0.27712  1.0000 0.054139 0.05211
C   C22       1.0  0.44989  0.24845  0.72288  1.0000 0.054118 0.05252
C   C23       1.0  0.05011  0.74844  0.77712  1.0000 0.054055 0.052123
C   C24       1.0  0.55011  0.75156  0.22288  1.0000 0.054048 -0.13277
C   C25       1.0  0.98709  0.64040  0.69739  1.0000 -0.13117 -0.133249
C   C26       1.0  0.48708  0.85960  0.30261  1.0000 -0.131092 -0.133174
C   C27       1.0  0.01292  0.35960  0.19739  1.0000 -0.131226 -0.133282
C   C28       1.0  0.51291  0.14040  0.80261  1.0000 -0.13124 -0.133342
C   C29       1.0  0.01292  0.35959  0.30261  1.0000 -0.131314 -0.132937
C   C30       1.0  0.51292  0.14041  0.69739  1.0000 -0.131306 -0.133136
C   C31       1.0  0.98708  0.64040  0.80261  1.0000 -0.131191 -0.133105
C   C32       1.0  0.48708  0.85960  0.19739  1.0000 -0.131176 -0.078166
C   C33       1.0  0.92614  0.53782  0.72358  1.0000 -0.081142 -0.077868
C   C34       1.0  0.42614  0.96218  0.27642  1.0000 -0.081134 -0.077724
C   C35       1.0  0.07386  0.46217  0.22358  1.0000 -0.081035 -0.077723
C   C36       1.0  0.57386  0.03783  0.77642  1.0000 -0.08114 -0.077592
C   C37       1.0  0.07386  0.46217  0.27642  1.0000 -0.081059 -0.077988
C   C38       1.0  0.57386  0.03783  0.72358  1.0000 -0.080991 -0.078047
C   C39       1.0  0.92614  0.53782  0.77642  1.0000 -0.081089 -0.078077
C   C40       1.0  0.42614  0.96218  0.22358  1.0000 -0.081134 -0.094671
C   C41       1.0  0.18750  0.95178  0.72380  1.0000 -0.094908 -0.094519
C   C42       1.0  0.68750  0.54822  0.27620  1.0000 -0.09479 -0.094421
C   C43       1.0  0.81250  0.04822  0.22380  1.0000 -0.094853 -0.094371
C   C44       1.0  0.31250  0.45178  0.77620  1.0000 -0.094798 -0.094674
C   C45       1.0  0.81250  0.04822  0.27620  1.0000 -0.094875 -0.094608
C   C46       1.0  0.31250  0.45178  0.72380  1.0000 -0.094872 -0.094392
C   C47       1.0  0.18750  0.95178  0.77620  1.0000 -0.094865 -0.094565
C   C48       1.0  0.68750  0.54822  0.22380  1.0000 -0.094889 0.161723
C   C49       1.0  0.33085  0.76014  0.49129  1.0000 0.160703 0.161625
C   C50       1.0  0.83085  0.73986  0.50871  1.0000 0.160674 0.16137
C   C51       1.0  0.66914  0.23986  0.99129  1.0000 0.160816 0.161725
C   C52       1.0  0.16914  0.26014  0.00871  1.0000 0.16078 0.161522
C   C53       1.0  0.66915  0.23986  0.50871  1.0000 0.160703 0.1617
C   C54       1.0  0.16915  0.26014  0.49129  1.0000 0.160643 0.161556
C   C55       1.0  0.33086  0.76014  0.00871  1.0000 0.160825 0.161539
C   C56       1.0  0.83086  0.73986  0.99129  1.0000 0.160824 0.169224
C   C57       1.0  0.23385  0.62527  0.54239  1.0000 0.170765 0.169003
C   C58       1.0  0.73385  0.87473  0.45761  1.0000 0.17077 0.169183
C   C59       1.0  0.76614  0.37473  0.04239  1.0000 0.170708 0.169726
C   C60       1.0  0.26614  0.12527  0.95761  1.0000 0.170795 0.16919
C   C61       1.0  0.76615  0.37473  0.45761  1.0000 0.170781 0.169291
C   C62       1.0  0.26615  0.12527  0.54239  1.0000 0.170756 0.169352
C   C63       1.0  0.23386  0.62527  0.95761  1.0000 0.170736 0.168964
C   C64       1.0  0.73386  0.87473  0.04239  1.0000 0.170753 0.616742
C   C65       1.0  0.11329  0.61768  0.39834  1.0000 0.616387 0.616743
C   C66       1.0  0.61329  0.88232  0.60166  1.0000 0.616535 0.616913
C   C67       1.0  0.88671  0.38232  0.89834  1.0000 0.616641 0.616682
C   C68       1.0  0.38671  0.11768  0.10166  1.0000 0.616656 0.616847
C   C69       1.0  0.88671  0.38232  0.60166  1.0000 0.616467 0.616541
C   C70       1.0  0.38671  0.11768  0.39834  1.0000 0.616608 0.616447
C   C71       1.0  0.11329  0.61768  0.10166  1.0000 0.616471 0.616823
C   C72       1.0  0.61329  0.88232  0.89834  1.0000 0.616418 -0.01192
C   C73       1.0  0.00467  0.78676  0.35369  1.0000 -0.01919 -0.011718
C   C74       1.0  0.50467  0.71324  0.64631  1.0000 -0.019066 -0.011952
C   C75       1.0  0.99533  0.21324  0.85369  1.0000 -0.019103 -0.012197
C   C76       1.0  0.49533  0.28676  0.14631  1.0000 -0.019039 -0.012084
C   C77       1.0  0.99533  0.21324  0.64631  1.0000 -0.019138 -0.012075
C   C78       1.0  0.49533  0.28676  0.35369  1.0000 -0.019109 -0.012322
C   C79       1.0  0.00467  0.78676  0.14631  1.0000 -0.019143 -0.011996
C   C80       1.0  0.50467  0.71324  0.85369  1.0000 -0.019226 -0.018047
C   C81       1.0  0.16047  0.80953  0.35195  1.0000 -0.021886 -0.018113
C   C82       1.0  0.66047  0.69047  0.64805  1.0000 -0.021971 -0.017779
C   C83       1.0  0.83953  0.19047  0.85195  1.0000 -0.021957 -0.01782
C   C84       1.0  0.33953  0.30953  0.14805  1.0000 -0.021931 -0.017841
C   C85       1.0  0.83953  0.19048  0.64805  1.0000 -0.021757 -0.017755
C   C86       1.0  0.33953  0.30953  0.35195  1.0000 -0.021893 -0.017966
C   C87       1.0  0.16047  0.80953  0.14805  1.0000 -0.021919 -0.017936
C   C88       1.0  0.66047  0.69047  0.85195  1.0000 -0.02191 -0.31238
N   N1        1.0  0.22080  0.74742  0.52189  1.0000 -0.310331 -0.312075
N   N2        1.0  0.72080  0.75258  0.47811  1.0000 -0.310323 -0.311457
N   N3        1.0  0.77919  0.25258  0.02190  1.0000 -0.31029 -0.312155
N   N4        1.0  0.27919  0.24742  0.97810  1.0000 -0.310282 -0.311684
N   N5        1.0  0.77920  0.25258  0.47810  1.0000 -0.310297 -0.312018
N   N6        1.0  0.27920  0.24742  0.52189  1.0000 -0.310255 -0.313604
N   N7        1.0  0.22080  0.74742  0.97810  1.0000 -0.31036 -0.312006
N   N8        1.0  0.72081  0.75258  0.02190  1.0000 -0.310314 -0.188634
N   N9        1.0  0.34627  0.56477  0.52575  1.0000 -0.188657 -0.18866
N   N10       1.0  0.84627  0.93523  0.47425  1.0000 -0.188762 -0.18884
N   N11       1.0  0.65373  0.43522  0.02575  1.0000 -0.18862 -0.189028
N   N12       1.0  0.15373  0.06477  0.97425  1.0000 -0.188704 -0.188587
N   N13       1.0  0.65373  0.43523  0.47425  1.0000 -0.18863 -0.188568
N   N14       1.0  0.15373  0.06477  0.52575  1.0000 -0.188675 -0.18864
N   N15       1.0  0.34627  0.56477  0.97425  1.0000 -0.188716 -0.188903
N   N16       1.0  0.84627  0.93523  0.02575  1.0000 -0.188673 -0.189234
N   N17       1.0  0.40769  0.65082  0.49283  1.0000 -0.189935 -0.189313
N   N18       1.0  0.90769  0.84918  0.50717  1.0000 -0.189845 -0.188994
N   N19       1.0  0.59230  0.34918  0.99283  1.0000 -0.190075 -0.188815
N   N20       1.0  0.09230  0.15082  0.00717  1.0000 -0.190041 -0.188964
N   N21       1.0  0.59231  0.34918  0.50717  1.0000 -0.190005 -0.189068
N   N22       1.0  0.09231  0.15082  0.49283  1.0000 -0.189918 -0.189116
N   N23       1.0  0.40769  0.65082  0.00717  1.0000 -0.189941 -0.189254
N   N24       1.0  0.90769  0.84918  0.99283  1.0000 -0.190028 -0.443417
N   N25       1.0  0.99239  0.68810  0.39365  1.0000 -0.440666 -0.443684
N   N26       1.0  0.49239  0.81190  0.60635  1.0000 -0.440774 -0.443763
N   N27       1.0  0.00761  0.31190  0.89365  1.0000 -0.440786 -0.443912
N   N28       1.0  0.50761  0.18810  0.10635  1.0000 -0.440769 -0.443627
N   N29       1.0  0.00761  0.31190  0.60635  1.0000 -0.440785 -0.443453
N   N30       1.0  0.50761  0.18810  0.39365  1.0000 -0.440796 -0.443496
N   N31       1.0  0.99239  0.68810  0.10635  1.0000 -0.440638 -0.443474
N   N32       1.0  0.49239  0.81190  0.89365  1.0000 -0.440669 -0.435454
N   N33       1.0  0.21174  0.68158  0.37026  1.0000 -0.431928 -0.435343
N   N34       1.0  0.71174  0.81842  0.62974  1.0000 -0.432004 -0.435417
N   N35       1.0  0.78826  0.31842  0.87026  1.0000 -0.432064 -0.435496
N   N36       1.0  0.28826  0.18158  0.12974  1.0000 -0.432016 -0.435291
N   N37       1.0  0.78826  0.31842  0.62974  1.0000 -0.431986 -0.435078
N   N38       1.0  0.28826  0.18158  0.37026  1.0000 -0.43205 -0.435272
N   N39       1.0  0.21174  0.68158  0.12974  1.0000 -0.431951 -0.435121
N   N40       1.0  0.71174  0.81842  0.87026  1.0000 -0.431854 -0.531136
O   O1        1.0  0.02004  0.83409  0.61380  1.0000 -0.531265 -0.53089
O   O2        1.0  0.52004  0.66591  0.38620  1.0000 -0.531271 -0.530809
O   O3        1.0  0.97996  0.16591  0.11380  1.0000 -0.531285 -0.530777
O   O4        1.0  0.47996  0.33409  0.88620  1.0000 -0.531207 -0.530627
O   O5        1.0  0.97996  0.16591  0.38620  1.0000 -0.531347 -0.530737
O   O6        1.0  0.47996  0.33409  0.61380  1.0000 -0.531242 -0.53128
O   O7        1.0  0.02004  0.83409  0.88620  1.0000 -0.531193 -0.531146
O   O8        1.0  0.52004  0.66592  0.11380  1.0000 -0.5313 -0.552214
O   O9        1.0  0.22798  0.92290  0.62177  1.0000 -0.557978 -0.552234
O   O10       1.0  0.72798  0.57710  0.37823  1.0000 -0.558035 -0.552116
O   O11       1.0  0.77202  0.07710  0.12177  1.0000 -0.557996 -0.552126
O   O12       1.0  0.27201  0.42291  0.87823  1.0000 -0.557975 -0.55212
O   O13       1.0  0.77202  0.07710  0.37823  1.0000 -0.558018 -0.552208
O   O14       1.0  0.27201  0.42290  0.62177  1.0000 -0.558003 -0.552346
O   O15       1.0  0.22798  0.92290  0.87823  1.0000 -0.557967 -0.552167
O   O16       1.0  0.72799  0.57709  0.12177  1.0000 -0.557994 -0.584029
O   O17       1.0  0.12914  0.51389  0.42326  1.0000 -0.589114 -0.583971
O   O18       1.0  0.62914  0.98611  0.57674  1.0000 -0.589097 -0.583841
O   O19       1.0  0.87086  0.48611  0.92326  1.0000 -0.589137 -0.583511
O   O20       1.0  0.37086  0.01389  0.07674  1.0000 -0.589189 -0.583818
O   O21       1.0  0.87086  0.48611  0.57673  1.0000 -0.589087 -0.583641
O   O22       1.0  0.37086  0.01389  0.42326  1.0000 -0.589135 -0.583866
O   O23       1.0  0.12914  0.51389  0.07674  1.0000 -0.589156 -0.583944
O   O24       1.0  0.62915  0.98612  0.92326  1.0000 -0.589082
